version 3
run SinglePair-modeSwitching-0-20230302-20:13:13-298927
attr configname SinglePair-modeSwitching
attr datetime 20230302-20:13:13
attr datetimef 20230302-201313
attr experiment SinglePair-modeSwitching
attr inifile omnetpp.ini
attr iterationvars ""
attr iterationvarsd ""
attr iterationvarsf ""
attr measurement ""
attr network simu5g.simulations.NR.networks.SingleCell_Standalone_D2D
attr processid 298927
attr repetition 0
attr replication #0
attr resultdir results
attr runnumber 0
attr seedset 0
config image-path ../../../images:../../../../inet4.4/images:../../../../veins-veins-5.2/subprojects/veins_inet/images:../../../../veins-veins-5.2/images
config network simu5g.simulations.NR.networks.SingleCell_Standalone_D2D
config sim-time-limit 50s
config warmup-period 0s
config **.vector-recording true
config **.cellularNic.channelModel[0].fading false
config **.cellularNic.channelModel[0].shadowing false
config *.gnb.mobility.initialX 300m
config *.gnb.mobility.initialY 300m
config *.numUeCell 0
config *.numUeD2DTx 1
config *.numUeD2DRx 1
config *.ue*[0].macCellId 0
config *.ue*[0].masterId 0
config *.ue*[0].nrMacCellId 1
config *.ue*[0].nrMasterId 1
config *.ue*[0].mobility.initFromDisplayString false
config *.ue*[0].mobility.typename LinearMobility
config *.ue*[0].mobility.speed 10mps
config *.ueD2DTx[0].mobility.initialX 290m
config *.ueD2DTx[0].mobility.initialY 400m
config *.ueD2DTx[0].mobility.constraintAreaMinX 200m
config *.ueD2DTx[0].mobility.constraintAreaMaxX 290m
config *.ueD2DTx[0].mobility.initialMovementHeading 180deg
config *.ueD2DRx[0].mobility.initialX 310m
config *.ueD2DRx[0].mobility.initialY 400m
config *.ueD2DRx[0].mobility.constraintAreaMinX 310m
config *.ueD2DRx[0].mobility.constraintAreaMaxX 400m
config *.ueD2DRx[0].mobility.initialMovementHeading 0deg
config *.ueD2D*[*].cellularNic.d2dInitialMode true
config **.usePreconfiguredTxParams false
config **.gnb.cellularNic.phy.enableD2DCqiReporting true
config **.amcMode "\"D2D\""
config *.gnb.cellularNic.d2dModeSelectionType "\"D2DModeSelectionBestCqi\""
config image-path ../../images
config sim-time-limit 20s
config warmup-period 0s
config repeat 3
config **.routingRecorder.enabled false
config output-scalar-file results/SinglePair-modeSwitching/0.sca
config output-vector-file results/SinglePair-modeSwitching/0.vec
config seed-set 0
config **.vector-recording false
config **.mobility.constraintAreaMaxX 1000m
config **.mobility.constraintAreaMaxY 1000m
config **.mobility.constraintAreaMinX 0m
config **.mobility.constraintAreaMinY 0m
config **.mobility.constraintAreaMinZ 0m
config **.mobility.constraintAreaMaxZ 0m
config **.mobility.initFromDisplayString false
config **.numBands 50
config **.ueTxPower 26
config **.eNodeBTxPower 40
config **.targetBler 0.01
config **.blerShift 5
config *.configurator.config "xmldoc(\"./demo.xml\")"

par SingleCell_Standalone_D2D.server.pppg$o[0].channel typename "\"inet.node.ethernet.Eth10G\""
par SingleCell_Standalone_D2D.server.pppg$o[0].channel disabled false
attr mutable ""
par SingleCell_Standalone_D2D.server.pppg$o[0].channel delay 5e-08s
attr mutable ""
attr unit s
par SingleCell_Standalone_D2D.server.pppg$o[0].channel datarate 1e+10bps
attr mutable ""
attr unit bps
par SingleCell_Standalone_D2D.server.pppg$o[0].channel ber 0
attr mutable ""
par SingleCell_Standalone_D2D.server.pppg$o[0].channel per 0
attr mutable ""
par SingleCell_Standalone_D2D.server.pppg$o[0].channel length 10m
attr unit m
par SingleCell_Standalone_D2D.router.pppg$o[0].channel typename "\"inet.node.ethernet.Eth10G\""
par SingleCell_Standalone_D2D.router.pppg$o[0].channel disabled false
attr mutable ""
par SingleCell_Standalone_D2D.router.pppg$o[0].channel delay 5e-08s
attr mutable ""
attr unit s
par SingleCell_Standalone_D2D.router.pppg$o[0].channel datarate 1e+10bps
attr mutable ""
attr unit bps
par SingleCell_Standalone_D2D.router.pppg$o[0].channel ber 0
attr mutable ""
par SingleCell_Standalone_D2D.router.pppg$o[0].channel per 0
attr mutable ""
par SingleCell_Standalone_D2D.router.pppg$o[0].channel length 10m
attr unit m
par SingleCell_Standalone_D2D.router.pppg$o[1].channel typename "\"inet.node.ethernet.Eth10G\""
par SingleCell_Standalone_D2D.router.pppg$o[1].channel disabled false
attr mutable ""
par SingleCell_Standalone_D2D.router.pppg$o[1].channel delay 5e-08s
attr mutable ""
attr unit s
par SingleCell_Standalone_D2D.router.pppg$o[1].channel datarate 1e+10bps
attr mutable ""
attr unit bps
par SingleCell_Standalone_D2D.router.pppg$o[1].channel ber 0
attr mutable ""
par SingleCell_Standalone_D2D.router.pppg$o[1].channel per 0
attr mutable ""
par SingleCell_Standalone_D2D.router.pppg$o[1].channel length 10m
attr unit m
par SingleCell_Standalone_D2D.upf.filterGate$o.channel typename "\"inet.node.ethernet.Eth10G\""
par SingleCell_Standalone_D2D.upf.filterGate$o.channel disabled false
attr mutable ""
par SingleCell_Standalone_D2D.upf.filterGate$o.channel delay 5e-08s
attr mutable ""
attr unit s
par SingleCell_Standalone_D2D.upf.filterGate$o.channel datarate 1e+10bps
attr mutable ""
attr unit bps
par SingleCell_Standalone_D2D.upf.filterGate$o.channel ber 0
attr mutable ""
par SingleCell_Standalone_D2D.upf.filterGate$o.channel per 0
attr mutable ""
par SingleCell_Standalone_D2D.upf.filterGate$o.channel length 10m
attr unit m
par SingleCell_Standalone_D2D.upf.pppg$o[0].channel typename "\"inet.node.ethernet.Eth10G\""
par SingleCell_Standalone_D2D.upf.pppg$o[0].channel disabled false
attr mutable ""
par SingleCell_Standalone_D2D.upf.pppg$o[0].channel delay 5e-08s
attr mutable ""
attr unit s
par SingleCell_Standalone_D2D.upf.pppg$o[0].channel datarate 1e+10bps
attr mutable ""
attr unit bps
par SingleCell_Standalone_D2D.upf.pppg$o[0].channel ber 0
attr mutable ""
par SingleCell_Standalone_D2D.upf.pppg$o[0].channel per 0
attr mutable ""
par SingleCell_Standalone_D2D.upf.pppg$o[0].channel length 10m
attr unit m
par SingleCell_Standalone_D2D.iUpf.pppg$o[0].channel typename "\"inet.node.ethernet.Eth10G\""
par SingleCell_Standalone_D2D.iUpf.pppg$o[0].channel disabled false
attr mutable ""
par SingleCell_Standalone_D2D.iUpf.pppg$o[0].channel delay 5e-08s
attr mutable ""
attr unit s
par SingleCell_Standalone_D2D.iUpf.pppg$o[0].channel datarate 1e+10bps
attr mutable ""
attr unit bps
par SingleCell_Standalone_D2D.iUpf.pppg$o[0].channel ber 0
attr mutable ""
par SingleCell_Standalone_D2D.iUpf.pppg$o[0].channel per 0
attr mutable ""
par SingleCell_Standalone_D2D.iUpf.pppg$o[0].channel length 10m
attr unit m
par SingleCell_Standalone_D2D.iUpf.pppg$o[1].channel typename "\"inet.node.ethernet.Eth10G\""
par SingleCell_Standalone_D2D.iUpf.pppg$o[1].channel disabled false
attr mutable ""
par SingleCell_Standalone_D2D.iUpf.pppg$o[1].channel delay 5e-08s
attr mutable ""
attr unit s
par SingleCell_Standalone_D2D.iUpf.pppg$o[1].channel datarate 1e+10bps
attr mutable ""
attr unit bps
par SingleCell_Standalone_D2D.iUpf.pppg$o[1].channel ber 0
attr mutable ""
par SingleCell_Standalone_D2D.iUpf.pppg$o[1].channel per 0
attr mutable ""
par SingleCell_Standalone_D2D.iUpf.pppg$o[1].channel length 10m
attr unit m
par SingleCell_Standalone_D2D.gnb.ppp$o.channel typename "\"inet.node.ethernet.Eth10G\""
par SingleCell_Standalone_D2D.gnb.ppp$o.channel disabled false
attr mutable ""
par SingleCell_Standalone_D2D.gnb.ppp$o.channel delay 5e-08s
attr mutable ""
attr unit s
par SingleCell_Standalone_D2D.gnb.ppp$o.channel datarate 1e+10bps
attr mutable ""
attr unit bps
par SingleCell_Standalone_D2D.gnb.ppp$o.channel ber 0
attr mutable ""
par SingleCell_Standalone_D2D.gnb.ppp$o.channel per 0
attr mutable ""
par SingleCell_Standalone_D2D.gnb.ppp$o.channel length 10m
attr unit m
par SingleCell_Standalone_D2D.channelControl typename "\"simu5g.world.radio.LteChannelControl\""
par SingleCell_Standalone_D2D.channelControl coreDebug false
par SingleCell_Standalone_D2D.channelControl pMax 20mW
attr unit mW
par SingleCell_Standalone_D2D.channelControl sat -110dBm
attr unit dBm
par SingleCell_Standalone_D2D.channelControl alpha 2
par SingleCell_Standalone_D2D.channelControl carrierFrequency 2.4e+09Hz
attr unit Hz
par SingleCell_Standalone_D2D.channelControl numChannels 1
par SingleCell_Standalone_D2D.channelControl propagationModel "\"FreeSpaceModel\""
attr enum FreeSpaceModel,TwoRayGroundModel,RiceModel,RayleighModel,NakagamiModel,LogNormalShadowingModel
par SingleCell_Standalone_D2D.routingRecorder typename "\"inet.networklayer.ipv4.RoutingTableRecorder\""
par SingleCell_Standalone_D2D.routingRecorder enabled false
par SingleCell_Standalone_D2D.configurator typename "\"inet.networklayer.configurator.ipv4.Ipv4NetworkConfigurator\""
par SingleCell_Standalone_D2D.configurator minLinkWeight 0.001
par SingleCell_Standalone_D2D.configurator configureIsolatedNetworksSeparatly false
par SingleCell_Standalone_D2D.configurator config "<config>...</config> at /home/iotlab/Documents/Hackathons-and-NRF-Project-Report/116-Hackathon/simu5g-drones-vehicles/simulations/NR/d2d//./demo.xml:1"
par SingleCell_Standalone_D2D.configurator assignAddresses true
par SingleCell_Standalone_D2D.configurator assignUniqueAddresses true
par SingleCell_Standalone_D2D.configurator assignDisjunctSubnetAddresses true
par SingleCell_Standalone_D2D.configurator addStaticRoutes true
par SingleCell_Standalone_D2D.configurator addDefaultRoutes true
par SingleCell_Standalone_D2D.configurator addSubnetRoutes true
par SingleCell_Standalone_D2D.configurator addDirectRoutes true
par SingleCell_Standalone_D2D.configurator optimizeRoutes true
par SingleCell_Standalone_D2D.configurator dumpTopology false
par SingleCell_Standalone_D2D.configurator dumpLinks false
par SingleCell_Standalone_D2D.configurator dumpAddresses false
par SingleCell_Standalone_D2D.configurator dumpRoutes false
par SingleCell_Standalone_D2D.configurator dumpConfig "\"\""
par SingleCell_Standalone_D2D.binder typename "\"simu5g.common.binder.Binder\""
par SingleCell_Standalone_D2D.binder blerShift 5
par SingleCell_Standalone_D2D.binder maxDataRatePerRb 1.16Mbps
attr unit Mbps
par SingleCell_Standalone_D2D.binder printTrafficGeneratorConfig false
par SingleCell_Standalone_D2D.carrierAggregation.componentCarrier[0] typename "\"simu5g.common.carrierAggregation.ComponentCarrier\""
par SingleCell_Standalone_D2D.carrierAggregation.componentCarrier[0] carrierFrequency 2GHz
attr unit GHz
par SingleCell_Standalone_D2D.carrierAggregation.componentCarrier[0] numBands 50
par SingleCell_Standalone_D2D.carrierAggregation.componentCarrier[0] numerologyIndex 0
par SingleCell_Standalone_D2D.carrierAggregation.componentCarrier[0] useTdd false
par SingleCell_Standalone_D2D.carrierAggregation.componentCarrier[0] tddNumSymbolsDl 7
par SingleCell_Standalone_D2D.carrierAggregation.componentCarrier[0] tddNumSymbolsUl 7
par SingleCell_Standalone_D2D.carrierAggregation typename "\"simu5g.common.carrierAggregation.CarrierAggregation\""
par SingleCell_Standalone_D2D.carrierAggregation numComponentCarriers 1
par SingleCell_Standalone_D2D.server.pppg$i[0].channel typename "\"ned.IdealChannel\""
par SingleCell_Standalone_D2D.server.ppp[0].phys$o.channel typename "\"ned.IdealChannel\""
par SingleCell_Standalone_D2D.server.interfaceTable typename "\"inet.networklayer.common.InterfaceTable\""
par SingleCell_Standalone_D2D.server.interfaceTable displayAddresses false
par SingleCell_Standalone_D2D.server.cb typename "\"inet.common.MessageDispatcher\""
par SingleCell_Standalone_D2D.server.cb displayStringTextFormat "\"processed %p pk (%l)\""
par SingleCell_Standalone_D2D.server.cb forwardServiceRegistration true
par SingleCell_Standalone_D2D.server.cb forwardProtocolRegistration true
par SingleCell_Standalone_D2D.server.bl typename "\"inet.common.MessageDispatcher\""
par SingleCell_Standalone_D2D.server.bl displayStringTextFormat "\"processed %p pk (%l)\""
par SingleCell_Standalone_D2D.server.bl forwardServiceRegistration true
par SingleCell_Standalone_D2D.server.bl forwardProtocolRegistration true
par SingleCell_Standalone_D2D.server.li typename "\"inet.common.MessageDispatcher\""
par SingleCell_Standalone_D2D.server.li displayStringTextFormat "\"processed %p pk (%l)\""
par SingleCell_Standalone_D2D.server.li forwardServiceRegistration true
par SingleCell_Standalone_D2D.server.li forwardProtocolRegistration true
par SingleCell_Standalone_D2D.server.lo[0].upperLayerIn.channel typename "\"ned.IdealChannel\""
par SingleCell_Standalone_D2D.server.lo[0].lo.upperLayerOut.channel typename "\"ned.IdealChannel\""
par SingleCell_Standalone_D2D.server.lo[0].lo typename "\"inet.linklayer.loopback.Loopback\""
par SingleCell_Standalone_D2D.server.lo[0].lo interfaceTableModule "\"SingleCell_Standalone_D2D.server.interfaceTable\""
par SingleCell_Standalone_D2D.server.lo[0].lo mtu 4470B
attr unit B
scalar SingleCell_Standalone_D2D.server.lo[0].lo rcvdPkFromHl:count 0
attr interpolationmode none
attr recordingmode count
attr source packetReceivedFromUpper
attr title "packets received from higher layer, count"
scalar SingleCell_Standalone_D2D.server.lo[0].lo rcvdPkFromHl:sum(packetBytes) 0
attr interpolationmode none
attr recordingmode sum(packetBytes)
attr source packetReceivedFromUpper
attr title "packets received from higher layer, sum(packetBytes)"
scalar SingleCell_Standalone_D2D.server.lo[0].lo passedUpPk:count 0
attr interpolationmode none
attr recordingmode count
attr source packetSentToUpper
attr title "packets passed to higher layer, count"
scalar SingleCell_Standalone_D2D.server.lo[0].lo passedUpPk:sum(packetBytes) 0
attr interpolationmode none
attr recordingmode sum(packetBytes)
attr source packetSentToUpper
attr title "packets passed to higher layer, sum(packetBytes)"
par SingleCell_Standalone_D2D.server.lo[0] typename "\"inet.linklayer.loopback.LoopbackInterface\""
par SingleCell_Standalone_D2D.server.lo[0] displayStringTextFormat "\"%a (%i)\\n%m\""
par SingleCell_Standalone_D2D.server.lo[0] recordPcap false
par SingleCell_Standalone_D2D.server.lo[0] numPcapRecorders 0
par SingleCell_Standalone_D2D.server.lo[0] interfaceTableModule "\"SingleCell_Standalone_D2D.server.interfaceTable\""
scalar SingleCell_Standalone_D2D.server.lo[0] packetDropInterfaceDown:count 0
attr interpolationmode none
attr recordingmode count
attr source packetDropReasonIsInterfaceDown(packetDropped)
attr title "packet drops: interface down, count"
scalar SingleCell_Standalone_D2D.server.lo[0] packetDropInterfaceDown:sum(packetBytes) 0
attr interpolationmode none
attr recordingmode sum(packetBytes)
attr source packetDropReasonIsInterfaceDown(packetDropped)
attr title "packet drops: interface down, sum(packetBytes)"
scalar SingleCell_Standalone_D2D.server.lo[0] packetDropNoCarrier:count 0
attr interpolationmode none
attr recordingmode count
attr source packetDropReasonIsNoCarrier(packetDropped)
attr title "packet drops: no carrier, count"
scalar SingleCell_Standalone_D2D.server.lo[0] packetDropNoCarrier:sum(packetBytes) 0
attr interpolationmode none
attr recordingmode sum(packetBytes)
attr source packetDropReasonIsNoCarrier(packetDropped)
attr title "packet drops: no carrier, sum(packetBytes)"
par SingleCell_Standalone_D2D.server.ppp[0].phys$i.channel typename "\"ned.IdealChannel\""
par SingleCell_Standalone_D2D.server.ppp[0].ppp.phys$o.channel typename "\"ned.IdealChannel\""
par SingleCell_Standalone_D2D.server.ppp[0].ppp.upperLayerOut.channel typename "\"ned.IdealChannel\""
par SingleCell_Standalone_D2D.server.ppp[0].upperLayerIn.channel typename "\"ned.IdealChannel\""
par SingleCell_Standalone_D2D.server.ppp[0].queue typename "\"inet.queueing.queue.DropTailQueue\""
par SingleCell_Standalone_D2D.server.ppp[0].queue displayStringTextFormat "\"contains %p pk (%l) pushed %u\\npulled %o removed %r dropped %d\""
par SingleCell_Standalone_D2D.server.ppp[0].queue packetCapacity 10000
par SingleCell_Standalone_D2D.server.ppp[0].queue dataCapacity -1b
attr unit b
par SingleCell_Standalone_D2D.server.ppp[0].queue dropperClass "\"inet::queueing::PacketAtCollectionEndDropper\""
par SingleCell_Standalone_D2D.server.ppp[0].queue comparatorClass "\"\""
par SingleCell_Standalone_D2D.server.ppp[0].queue bufferModule "\"\""
scalar SingleCell_Standalone_D2D.server.ppp[0].queue queueLength:last nan
attr autoWarmupFilter false
attr interpolationmode sample-hold
attr recordingmode last
attr source "warmup(atomic(constant0(packetPushEnded) + count(packetPushStarted) - count(packetPulled) - count(packetRemoved) - count(packetDropped)))"
attr title "queue length, last"
attr unit pk
scalar SingleCell_Standalone_D2D.server.ppp[0].queue queueLength:max nan
attr autoWarmupFilter false
attr interpolationmode sample-hold
attr recordingmode max
attr source "warmup(atomic(constant0(packetPushEnded) + count(packetPushStarted) - count(packetPulled) - count(packetRemoved) - count(packetDropped)))"
attr title "queue length, max"
attr unit pk
scalar SingleCell_Standalone_D2D.server.ppp[0].queue queueLength:timeavg -nan
attr autoWarmupFilter false
attr interpolationmode sample-hold
attr recordingmode timeavg
attr source "warmup(atomic(constant0(packetPushEnded) + count(packetPushStarted) - count(packetPulled) - count(packetRemoved) - count(packetDropped)))"
attr title "queue length, timeavg"
attr unit pk
scalar SingleCell_Standalone_D2D.server.ppp[0].queue queueBitLength:last nan
attr autoWarmupFilter false
attr interpolationmode sample-hold
attr recordingmode last
attr source "warmup(atomic(constant0(packetPushEnded) + sum(packetLength(packetPushStarted)) - sum(packetLength(packetPulled)) - sum(packetLength(packetRemoved)) - sum(packetLength(packetDropped))))"
attr title "queue bit length, last"
attr unit b
scalar SingleCell_Standalone_D2D.server.ppp[0].queue queueBitLength:max nan
attr autoWarmupFilter false
attr interpolationmode sample-hold
attr recordingmode max
attr source "warmup(atomic(constant0(packetPushEnded) + sum(packetLength(packetPushStarted)) - sum(packetLength(packetPulled)) - sum(packetLength(packetRemoved)) - sum(packetLength(packetDropped))))"
attr title "queue bit length, max"
attr unit b
scalar SingleCell_Standalone_D2D.server.ppp[0].queue queueBitLength:timeavg -nan
attr autoWarmupFilter false
attr interpolationmode sample-hold
attr recordingmode timeavg
attr source "warmup(atomic(constant0(packetPushEnded) + sum(packetLength(packetPushStarted)) - sum(packetLength(packetPulled)) - sum(packetLength(packetRemoved)) - sum(packetLength(packetDropped))))"
attr title "queue bit length, timeavg"
attr unit b
statistic SingleCell_Standalone_D2D.server.ppp[0].queue queueingTime:histogram
field count 0
field mean -nan
field stddev nan
field min nan
field max nan
field sum 0
field sqrsum 0
attr interpolationmode none
attr recordingmode histogram
attr source queueingTime(packetPulled)
attr title "queueing times"
attr unit s
bin	-inf	0
bin	0	0
bin	1	0
scalar SingleCell_Standalone_D2D.server.ppp[0].queue outgoingPackets:count 0
attr recordingmode count
attr source packetPulled
attr title "outgoing packets, count"
attr unit pk
scalar SingleCell_Standalone_D2D.server.ppp[0].queue outgoingPacketLengths:sum 0
attr interpolationmode none
attr recordingmode sum
attr source packetLength(packetPulled)
attr title "outgoing packet lengths, sum"
attr unit b
statistic SingleCell_Standalone_D2D.server.ppp[0].queue outgoingPacketLengths:histogram
field count 0
field mean -nan
field stddev nan
field min nan
field max nan
field sum 0
field sqrsum 0
attr interpolationmode none
attr recordingmode histogram
attr source packetLength(packetPulled)
attr title "outgoing packet lengths"
attr unit b
bin	-inf	0
bin	0	0
bin	1	0
statistic SingleCell_Standalone_D2D.server.ppp[0].queue flowQueueingTime:histogram
field count 0
field mean -nan
field stddev nan
field min nan
field max nan
field sum 0
field sqrsum 0
attr interpolationmode none
attr recordingmode histogram
attr source queueingTime(demuxFlow(packetPulled))
attr title "flow queueing times"
attr unit s
bin	-inf	0
bin	0	0
bin	1	0
scalar SingleCell_Standalone_D2D.server.ppp[0].queue incomingPackets:count 0
attr recordingmode count
attr source packetPushStarted
attr title "incoming packets, count"
attr unit pk
scalar SingleCell_Standalone_D2D.server.ppp[0].queue incomingPacketLengths:sum 0
attr interpolationmode none
attr recordingmode sum
attr source packetLength(packetPushStarted)
attr title "incoming packet lengths, sum"
attr unit b
statistic SingleCell_Standalone_D2D.server.ppp[0].queue incomingPacketLengths:histogram
field count 0
field mean -nan
field stddev nan
field min nan
field max nan
field sum 0
field sqrsum 0
attr interpolationmode none
attr recordingmode histogram
attr source packetLength(packetPushStarted)
attr title "incoming packet lengths"
attr unit b
bin	-inf	0
bin	0	0
bin	1	0
scalar SingleCell_Standalone_D2D.server.ppp[0].queue droppedPacketsQueueOverflow:count 0
attr interpolationmode none
attr recordingmode count
attr source packetDropReasonIsQueueOverflow(packetDropped)
attr title "dropped packets: queue overflow, count"
attr unit pk
scalar SingleCell_Standalone_D2D.server.ppp[0].queue droppedPacketLengthsQueueOverflow:sum 0
attr interpolationmode none
attr recordingmode sum
attr source packetLength(packetDropReasonIsQueueOverflow(packetDropped))
attr title "dropped packet lengths: queue overflow, sum"
attr unit b
par SingleCell_Standalone_D2D.server.ppp[0].ppp typename "\"inet.linklayer.ppp.Ppp\""
par SingleCell_Standalone_D2D.server.ppp[0].ppp interfaceTableModule "\"SingleCell_Standalone_D2D.server.interfaceTable\""
par SingleCell_Standalone_D2D.server.ppp[0].ppp displayStringTextFormat "\"rate: %b\\nsent: %s, rcvd: %r\\nqueue: %q, drop: %d\""
par SingleCell_Standalone_D2D.server.ppp[0].ppp sendRawBytes false
par SingleCell_Standalone_D2D.server.ppp[0].ppp mtu 4470B
attr unit B
par SingleCell_Standalone_D2D.server.ppp[0].ppp stopOperationExtraTime -1s
attr unit s
par SingleCell_Standalone_D2D.server.ppp[0].ppp stopOperationTimeout 2s
attr unit s
scalar SingleCell_Standalone_D2D.server.ppp[0].ppp transmissionState:timeavg 0
attr interpolationmode sample-hold
attr recordingmode timeavg
attr source transmissionStateChanged
attr title "tx state, timeavg"
scalar SingleCell_Standalone_D2D.server.ppp[0].ppp rxPkOk:count 0
attr interpolationmode none
attr recordingmode count
attr source rxPkOk
attr title "packets received OK, count"
scalar SingleCell_Standalone_D2D.server.ppp[0].ppp rxPkOk:sum(packetBytes) 0
attr interpolationmode none
attr recordingmode sum(packetBytes)
attr source rxPkOk
attr title "packets received OK, sum(packetBytes)"
scalar SingleCell_Standalone_D2D.server.ppp[0].ppp txPk:count 0
attr interpolationmode none
attr recordingmode count
attr source packetSentToLower
attr title "packets transmitted, count"
scalar SingleCell_Standalone_D2D.server.ppp[0].ppp txPk:sum(packetBytes) 0
attr interpolationmode none
attr recordingmode sum(packetBytes)
attr source packetSentToLower
attr title "packets transmitted, sum(packetBytes)"
scalar SingleCell_Standalone_D2D.server.ppp[0].ppp rcvdPkFromHl:count 0
attr interpolationmode none
attr recordingmode count
attr source packetReceivedFromUpper
attr title "packets received from higher layer, count"
scalar SingleCell_Standalone_D2D.server.ppp[0].ppp rcvdPkFromHl:sum(packetBytes) 0
attr interpolationmode none
attr recordingmode sum(packetBytes)
attr source packetReceivedFromUpper
attr title "packets received from higher layer, sum(packetBytes)"
scalar SingleCell_Standalone_D2D.server.ppp[0].ppp passedUpPk:count 0
attr interpolationmode none
attr recordingmode count
attr source packetSentToUpper
attr title "packets passed to higher layer, count"
scalar SingleCell_Standalone_D2D.server.ppp[0].ppp passedUpPk:sum(packetBytes) 0
attr interpolationmode none
attr recordingmode sum(packetBytes)
attr source packetSentToUpper
attr title "packets passed to higher layer, sum(packetBytes)"
scalar SingleCell_Standalone_D2D.server.ppp[0].ppp packetDropIncorrectlyReceived:count 0
attr interpolationmode none
attr recordingmode count
attr source packetDropReasonIsIncorrectlyReceived(packetDropped)
attr title "packet drop: incorrectly received, count"
scalar SingleCell_Standalone_D2D.server.ppp[0].ppp packetDropIncorrectlyReceived:sum(packetBytes) 0
attr interpolationmode none
attr recordingmode sum(packetBytes)
attr source packetDropReasonIsIncorrectlyReceived(packetDropped)
attr title "packet drop: incorrectly received, sum(packetBytes)"
scalar SingleCell_Standalone_D2D.server.ppp[0].ppp packetDropInterfaceDown:count 0
attr interpolationmode none
attr recordingmode count
attr source packetDropReasonIsInterfaceDown(packetDropped)
attr title "packet drop: interface down, count"
scalar SingleCell_Standalone_D2D.server.ppp[0].ppp packetDropInterfaceDown:sum(packetBytes) 0
attr interpolationmode none
attr recordingmode sum(packetBytes)
attr source packetDropReasonIsInterfaceDown(packetDropped)
attr title "packet drop: interface down, sum(packetBytes)"
par SingleCell_Standalone_D2D.server.ppp[0] typename "\"inet.linklayer.ppp.PppInterface\""
par SingleCell_Standalone_D2D.server.ppp[0] displayStringTextFormat "\"%a (%i)\\n%m\""
par SingleCell_Standalone_D2D.server.ppp[0] recordPcap false
par SingleCell_Standalone_D2D.server.ppp[0] numPcapRecorders 0
par SingleCell_Standalone_D2D.server.ppp[0] interfaceTableModule "\"SingleCell_Standalone_D2D.server.interfaceTable\""
scalar SingleCell_Standalone_D2D.server.ppp[0] packetDropInterfaceDown:count 0
attr interpolationmode none
attr recordingmode count
attr source packetDropReasonIsInterfaceDown(packetDropped)
attr title "packet drops: interface down, count"
scalar SingleCell_Standalone_D2D.server.ppp[0] packetDropInterfaceDown:sum(packetBytes) 0
attr interpolationmode none
attr recordingmode sum(packetBytes)
attr source packetDropReasonIsInterfaceDown(packetDropped)
attr title "packet drops: interface down, sum(packetBytes)"
scalar SingleCell_Standalone_D2D.server.ppp[0] packetDropNoCarrier:count 0
attr interpolationmode none
attr recordingmode count
attr source packetDropReasonIsNoCarrier(packetDropped)
attr title "packet drops: no carrier, count"
scalar SingleCell_Standalone_D2D.server.ppp[0] packetDropNoCarrier:sum(packetBytes) 0
attr interpolationmode none
attr recordingmode sum(packetBytes)
attr source packetDropReasonIsNoCarrier(packetDropped)
attr title "packet drops: no carrier, sum(packetBytes)"
par SingleCell_Standalone_D2D.server.ipv4.transportIn.channel typename "\"ned.IdealChannel\""
par SingleCell_Standalone_D2D.server.ipv4.up.out[0].channel typename "\"ned.IdealChannel\""
par SingleCell_Standalone_D2D.server.ipv4.lp.out[2].channel typename "\"ned.IdealChannel\""
par SingleCell_Standalone_D2D.server.ipv4.ifIn.channel typename "\"ned.IdealChannel\""
par SingleCell_Standalone_D2D.server.ipv4.configurator typename "\"inet.networklayer.configurator.ipv4.Ipv4NodeConfigurator\""
par SingleCell_Standalone_D2D.server.ipv4.configurator interfaceTableModule "\"SingleCell_Standalone_D2D.server.interfaceTable\""
par SingleCell_Standalone_D2D.server.ipv4.configurator routingTableModule "\"SingleCell_Standalone_D2D.server.ipv4.routingTable\""
par SingleCell_Standalone_D2D.server.ipv4.configurator networkConfiguratorModule "\"configurator\""
par SingleCell_Standalone_D2D.server.ipv4.configurator configureRoutingTable true
par SingleCell_Standalone_D2D.server.ipv4.routingTable typename "\"inet.networklayer.ipv4.Ipv4RoutingTable\""
par SingleCell_Standalone_D2D.server.ipv4.routingTable interfaceTableModule "\"SingleCell_Standalone_D2D.server.interfaceTable\""
par SingleCell_Standalone_D2D.server.ipv4.routingTable routerId "\"auto\""
par SingleCell_Standalone_D2D.server.ipv4.routingTable netmaskRoutes "\"*\""
par SingleCell_Standalone_D2D.server.ipv4.routingTable forwarding false
par SingleCell_Standalone_D2D.server.ipv4.routingTable multicastForwarding false
par SingleCell_Standalone_D2D.server.ipv4.routingTable useAdminDist false
par SingleCell_Standalone_D2D.server.ipv4.routingTable routingFile "\"\""
par SingleCell_Standalone_D2D.server.ipv4.natTable typename "\"inet.networklayer.ipv4.Ipv4NatTable\""
par SingleCell_Standalone_D2D.server.ipv4.natTable networkProtocolModule "\"^.ip\""
par SingleCell_Standalone_D2D.server.ipv4.natTable config "<config/> at content:1"
par SingleCell_Standalone_D2D.server.ipv4.up typename "\"inet.common.MessageDispatcher\""
par SingleCell_Standalone_D2D.server.ipv4.up displayStringTextFormat "\"processed %p pk (%l)\""
par SingleCell_Standalone_D2D.server.ipv4.up forwardServiceRegistration true
par SingleCell_Standalone_D2D.server.ipv4.up forwardProtocolRegistration true
par SingleCell_Standalone_D2D.server.ipv4.igmp typename "\"inet.networklayer.ipv4.Igmpv2\""
par SingleCell_Standalone_D2D.server.ipv4.igmp interfaceTableModule "\"SingleCell_Standalone_D2D.server.interfaceTable\""
par SingleCell_Standalone_D2D.server.ipv4.igmp routingTableModule "\"SingleCell_Standalone_D2D.server.ipv4.routingTable\""
par SingleCell_Standalone_D2D.server.ipv4.igmp crcMode "\"declared\""
attr enum declared,computed
par SingleCell_Standalone_D2D.server.ipv4.igmp enabled true
par SingleCell_Standalone_D2D.server.ipv4.igmp robustnessVariable 2
par SingleCell_Standalone_D2D.server.ipv4.igmp queryInterval 125s
attr unit s
par SingleCell_Standalone_D2D.server.ipv4.igmp queryResponseInterval 10s
attr unit s
par SingleCell_Standalone_D2D.server.ipv4.igmp groupMembershipInterval 260s
attr unit s
par SingleCell_Standalone_D2D.server.ipv4.igmp otherQuerierPresentInterval 255s
attr unit s
par SingleCell_Standalone_D2D.server.ipv4.igmp startupQueryInterval 31.25s
attr unit s
par SingleCell_Standalone_D2D.server.ipv4.igmp startupQueryCount 2
par SingleCell_Standalone_D2D.server.ipv4.igmp lastMemberQueryInterval 1s
attr unit s
par SingleCell_Standalone_D2D.server.ipv4.igmp lastMemberQueryCount 2
par SingleCell_Standalone_D2D.server.ipv4.igmp unsolicitedReportInterval 10s
attr unit s
par SingleCell_Standalone_D2D.server.ipv4.icmp typename "\"inet.networklayer.ipv4.Icmp\""
par SingleCell_Standalone_D2D.server.ipv4.icmp interfaceTableModule "\"SingleCell_Standalone_D2D.server.interfaceTable\""
par SingleCell_Standalone_D2D.server.ipv4.icmp routingTableModule "\"SingleCell_Standalone_D2D.server.ipv4.routingTable\""
par SingleCell_Standalone_D2D.server.ipv4.icmp crcMode "\"declared\""
attr enum declared,computed
attr mutable ""
par SingleCell_Standalone_D2D.server.ipv4.icmp quoteLength 8B
attr mutable ""
attr unit B
par SingleCell_Standalone_D2D.server.ipv4.mp typename "\"inet.common.MessageDispatcher\""
par SingleCell_Standalone_D2D.server.ipv4.mp displayStringTextFormat "\"processed %p pk (%l)\""
par SingleCell_Standalone_D2D.server.ipv4.mp forwardServiceRegistration true
par SingleCell_Standalone_D2D.server.ipv4.mp forwardProtocolRegistration true
par SingleCell_Standalone_D2D.server.ipv4.ip typename "\"inet.networklayer.ipv4.Ipv4\""
par SingleCell_Standalone_D2D.server.ipv4.ip interfaceTableModule "\"SingleCell_Standalone_D2D.server.interfaceTable\""
par SingleCell_Standalone_D2D.server.ipv4.ip routingTableModule "\"SingleCell_Standalone_D2D.server.ipv4.routingTable\""
par SingleCell_Standalone_D2D.server.ipv4.ip arpModule "\"SingleCell_Standalone_D2D.server.ipv4.arp\""
par SingleCell_Standalone_D2D.server.ipv4.ip icmpModule "\"SingleCell_Standalone_D2D.server.ipv4.icmp\""
par SingleCell_Standalone_D2D.server.ipv4.ip crcMode "\"declared\""
attr enum declared,computed
par SingleCell_Standalone_D2D.server.ipv4.ip timeToLive 32
par SingleCell_Standalone_D2D.server.ipv4.ip multicastTimeToLive 32
par SingleCell_Standalone_D2D.server.ipv4.ip fragmentTimeout 60s
attr unit s
par SingleCell_Standalone_D2D.server.ipv4.ip limitedBroadcast false
par SingleCell_Standalone_D2D.server.ipv4.ip directBroadcastInterfaces "\"\""
scalar SingleCell_Standalone_D2D.server.ipv4.ip packetDropAddressResolutionFailed:count 0
attr interpolationmode none
attr recordingmode count
attr source packetDropReasonIsAddressResolutionFailed(packetDropped)
attr title "packet drop: address resolution failed, count"
scalar SingleCell_Standalone_D2D.server.ipv4.ip packetDropAddressResolutionFailed:sum(packetBytes) 0
attr interpolationmode none
attr recordingmode sum(packetBytes)
attr source packetDropReasonIsAddressResolutionFailed(packetDropped)
attr title "packet drop: address resolution failed, sum(packetBytes)"
scalar SingleCell_Standalone_D2D.server.ipv4.ip packetDropHopLimitReached:count 0
attr interpolationmode none
attr recordingmode count
attr source packetDropReasonIsHopLimitReached(packetDropped)
attr title "packet drop: hop limit reached, count"
scalar SingleCell_Standalone_D2D.server.ipv4.ip packetDropHopLimitReached:sum(packetBytes) 0
attr interpolationmode none
attr recordingmode sum(packetBytes)
attr source packetDropReasonIsHopLimitReached(packetDropped)
attr title "packet drop: hop limit reached, sum(packetBytes)"
scalar SingleCell_Standalone_D2D.server.ipv4.ip packetDropForwardingDisabled:count 0
attr interpolationmode none
attr recordingmode count
attr source packetDropReasonIsForwardingDisabled(packetDropped)
attr title "packet drop: forwarding disabled, count"
scalar SingleCell_Standalone_D2D.server.ipv4.ip packetDropForwardingDisabled:sum(packetBytes) 0
attr interpolationmode none
attr recordingmode sum(packetBytes)
attr source packetDropReasonIsForwardingDisabled(packetDropped)
attr title "packet drop: forwarding disabled, sum(packetBytes)"
scalar SingleCell_Standalone_D2D.server.ipv4.ip packetDropNoInterfaceFound:count 0
attr interpolationmode none
attr recordingmode count
attr source packetDropReasonIsNoInterfaceFound(packetDropped)
attr title "packet drop: no interface found, count"
scalar SingleCell_Standalone_D2D.server.ipv4.ip packetDropNoInterfaceFound:sum(packetBytes) 0
attr interpolationmode none
attr recordingmode sum(packetBytes)
attr source packetDropReasonIsNoInterfaceFound(packetDropped)
attr title "packet drop: no interface found, sum(packetBytes)"
scalar SingleCell_Standalone_D2D.server.ipv4.ip packetDropNoRouteFound:count 0
attr interpolationmode none
attr recordingmode count
attr source packetDropReasonIsNoRouteFound(packetDropped)
attr title "packet drop: no route found, count"
scalar SingleCell_Standalone_D2D.server.ipv4.ip packetDropNoRouteFound:sum(packetBytes) 0
attr interpolationmode none
attr recordingmode sum(packetBytes)
attr source packetDropReasonIsNoRouteFound(packetDropped)
attr title "packet drop: no route found, sum(packetBytes)"
scalar SingleCell_Standalone_D2D.server.ipv4.ip packetDropUndefined:count 0
attr interpolationmode none
attr recordingmode count
attr source packetDropReasonIsUndefined(packetDropped)
attr title "packet drop: undefined, count"
scalar SingleCell_Standalone_D2D.server.ipv4.ip packetDropUndefined:sum(packetBytes) 0
attr interpolationmode none
attr recordingmode sum(packetBytes)
attr source packetDropReasonIsUndefined(packetDropped)
attr title "packet drop: undefined, sum(packetBytes)"
par SingleCell_Standalone_D2D.server.ipv4.arp typename "\"inet.networklayer.arp.ipv4.Arp\""
par SingleCell_Standalone_D2D.server.ipv4.arp interfaceTableModule "\"SingleCell_Standalone_D2D.server.interfaceTable\""
par SingleCell_Standalone_D2D.server.ipv4.arp routingTableModule "\"SingleCell_Standalone_D2D.server.ipv4.routingTable\""
par SingleCell_Standalone_D2D.server.ipv4.arp retryTimeout 1s
attr unit s
par SingleCell_Standalone_D2D.server.ipv4.arp retryCount 3
par SingleCell_Standalone_D2D.server.ipv4.arp cacheTimeout 120s
attr unit s
par SingleCell_Standalone_D2D.server.ipv4.arp proxyArpInterfaces "\"\""
scalar SingleCell_Standalone_D2D.server.ipv4.arp arpResolutionFailed:count 0
attr recordingmode count
attr title "ARP failed resolutions, count"
scalar SingleCell_Standalone_D2D.server.ipv4.arp arpResolutionCompleted:count 0
attr recordingmode count
attr title "ARP completed resolutions, count"
scalar SingleCell_Standalone_D2D.server.ipv4.arp arpResolutionInitiated:count 0
attr recordingmode count
attr title "ARP initiated resolutions, count"
scalar SingleCell_Standalone_D2D.server.ipv4.arp arpReplySent:count 0
attr recordingmode count
attr source arpReplySent
attr title "ARP replies sent, count"
scalar SingleCell_Standalone_D2D.server.ipv4.arp arpReplySent:sum(packetBytes) 0
attr recordingmode sum(packetBytes)
attr source arpReplySent
attr title "ARP replies sent, sum(packetBytes)"
scalar SingleCell_Standalone_D2D.server.ipv4.arp arpRequestSent:count 0
attr recordingmode count
attr source arpRequestSent
attr title "ARP request sent, count"
scalar SingleCell_Standalone_D2D.server.ipv4.arp arpRequestSent:sum(packetBytes) 0
attr recordingmode sum(packetBytes)
attr source arpRequestSent
attr title "ARP request sent, sum(packetBytes)"
par SingleCell_Standalone_D2D.server.ipv4.lp typename "\"inet.common.MessageDispatcher\""
par SingleCell_Standalone_D2D.server.ipv4.lp displayStringTextFormat "\"processed %p pk (%l)\""
par SingleCell_Standalone_D2D.server.ipv4.lp forwardServiceRegistration true
par SingleCell_Standalone_D2D.server.ipv4.lp forwardProtocolRegistration true
par SingleCell_Standalone_D2D.server.ipv4 typename "\"inet.networklayer.ipv4.Ipv4NetworkLayer\""
par SingleCell_Standalone_D2D.server.ipv4 forwarding false
par SingleCell_Standalone_D2D.server.ipv4 multicastForwarding false
par SingleCell_Standalone_D2D.server.ipv4 interfaceTableModule "\"SingleCell_Standalone_D2D.server.interfaceTable\""
par SingleCell_Standalone_D2D.server.ipv4 displayStringTextFormat "\"%i\""
par SingleCell_Standalone_D2D.server.nl typename "\"inet.common.MessageDispatcher\""
par SingleCell_Standalone_D2D.server.nl displayStringTextFormat "\"processed %p pk (%l)\""
par SingleCell_Standalone_D2D.server.nl forwardServiceRegistration true
par SingleCell_Standalone_D2D.server.nl forwardProtocolRegistration true
par SingleCell_Standalone_D2D.server.udp typename "\"inet.transportlayer.udp.Udp\""
par SingleCell_Standalone_D2D.server.udp interfaceTableModule "\"SingleCell_Standalone_D2D.server.interfaceTable\""
par SingleCell_Standalone_D2D.server.udp icmpModule "\"^.ipv4.icmp\""
par SingleCell_Standalone_D2D.server.udp icmpv6Module "\"^.ipv6.icmpv6\""
par SingleCell_Standalone_D2D.server.udp crcMode "\"declared\""
attr enum disabled,declared,computed
par SingleCell_Standalone_D2D.server.udp defaultMulticastLoop true
scalar SingleCell_Standalone_D2D.server.udp packetReceived:count 0
attr interpolationmode none
attr recordingmode count
attr source packetReceived
attr title "packets received, count"
scalar SingleCell_Standalone_D2D.server.udp packetReceived:sum(packetBytes) 0
attr interpolationmode none
attr recordingmode sum(packetBytes)
attr source packetReceived
attr title "packets received, sum(packetBytes)"
scalar SingleCell_Standalone_D2D.server.udp packetSent:count 0
attr interpolationmode none
attr recordingmode count
attr source packetSent
attr title "packets sent, count"
scalar SingleCell_Standalone_D2D.server.udp packetSent:sum(packetBytes) 0
attr interpolationmode none
attr recordingmode sum(packetBytes)
attr source packetSent
attr title "packets sent, sum(packetBytes)"
scalar SingleCell_Standalone_D2D.server.udp passedUpPk:count 0
attr interpolationmode none
attr recordingmode count
attr source packetSentToUpper
attr title "packets passed up, count"
scalar SingleCell_Standalone_D2D.server.udp droppedPkWrongPort:count 0
attr interpolationmode none
attr recordingmode count
attr source packetDropReasonIsNoPortFound(packetDropped)
attr title "packets dropped (wrong port), count"
scalar SingleCell_Standalone_D2D.server.udp droppedPkBadChecksum:count 0
attr interpolationmode none
attr recordingmode count
attr source packetDropReasonIsIncorrectlyReceived(packetDropped)
attr title "packets dropped (checksum error), count"
par SingleCell_Standalone_D2D.server.tcp typename "\"inet.transportlayer.tcp.Tcp\""
par SingleCell_Standalone_D2D.server.tcp crcMode "\"declared\""
attr enum declared,computed
par SingleCell_Standalone_D2D.server.tcp advertisedWindow 7504
par SingleCell_Standalone_D2D.server.tcp delayedAcksEnabled false
par SingleCell_Standalone_D2D.server.tcp nagleEnabled true
par SingleCell_Standalone_D2D.server.tcp limitedTransmitEnabled false
par SingleCell_Standalone_D2D.server.tcp increasedIWEnabled false
par SingleCell_Standalone_D2D.server.tcp sackSupport false
par SingleCell_Standalone_D2D.server.tcp windowScalingSupport false
par SingleCell_Standalone_D2D.server.tcp windowScalingFactor -1
par SingleCell_Standalone_D2D.server.tcp timestampSupport false
par SingleCell_Standalone_D2D.server.tcp mss 536
par SingleCell_Standalone_D2D.server.tcp msl 120s
attr unit s
par SingleCell_Standalone_D2D.server.tcp tcpAlgorithmClass "\"TcpReno\""
attr enum TcpVegas,TcpWestwood,TcpNewReno,TcpReno,TcpTahoe,TcpNoCongestionControl
par SingleCell_Standalone_D2D.server.tcp useDataNotification false
par SingleCell_Standalone_D2D.server.tcp dupthresh 3
par SingleCell_Standalone_D2D.server.tcp initialSsthresh 4294967295
par SingleCell_Standalone_D2D.server.tcp stopOperationExtraTime 0s
attr unit s
par SingleCell_Standalone_D2D.server.tcp stopOperationTimeout 2s
attr unit s
par SingleCell_Standalone_D2D.server.tcp ecnWillingness false
par SingleCell_Standalone_D2D.server.tcp dctcpGamma 0.0625
par SingleCell_Standalone_D2D.server.tn typename "\"inet.common.MessageDispatcher\""
par SingleCell_Standalone_D2D.server.tn displayStringTextFormat "\"processed %p pk (%l)\""
par SingleCell_Standalone_D2D.server.tn forwardServiceRegistration true
par SingleCell_Standalone_D2D.server.tn forwardProtocolRegistration true
par SingleCell_Standalone_D2D.server.at typename "\"inet.common.MessageDispatcher\""
par SingleCell_Standalone_D2D.server.at displayStringTextFormat "\"processed %p pk (%l)\""
par SingleCell_Standalone_D2D.server.at forwardServiceRegistration true
par SingleCell_Standalone_D2D.server.at forwardProtocolRegistration true
par SingleCell_Standalone_D2D.server typename "\"inet.node.inet.StandardHost\""
par SingleCell_Standalone_D2D.server hasStatus false
par SingleCell_Standalone_D2D.server osgModel "\"\""
par SingleCell_Standalone_D2D.server osgModelColor "\"\""
par SingleCell_Standalone_D2D.server canvasImage "\"\""
par SingleCell_Standalone_D2D.server canvasImageColor "\"\""
par SingleCell_Standalone_D2D.server recordPcap false
par SingleCell_Standalone_D2D.server numPcapRecorders 0
par SingleCell_Standalone_D2D.server numLoInterfaces 1
par SingleCell_Standalone_D2D.server numWlanInterfaces 0
par SingleCell_Standalone_D2D.server numEthInterfaces 0
par SingleCell_Standalone_D2D.server numPppInterfaces 0
par SingleCell_Standalone_D2D.server numTunInterfaces 0
par SingleCell_Standalone_D2D.server numVirtInterfaces 0
par SingleCell_Standalone_D2D.server fcsMode "\"declared\""
attr enum declared,computed
par SingleCell_Standalone_D2D.server hasIpv4 true
par SingleCell_Standalone_D2D.server hasIpv6 false
par SingleCell_Standalone_D2D.server hasGn false
par SingleCell_Standalone_D2D.server forwarding false
par SingleCell_Standalone_D2D.server multicastForwarding false
par SingleCell_Standalone_D2D.server hasUdp true
par SingleCell_Standalone_D2D.server hasTcp true
par SingleCell_Standalone_D2D.server hasSctp false
par SingleCell_Standalone_D2D.server numApps 0
par SingleCell_Standalone_D2D.router.pppg$i[0].channel typename "\"ned.IdealChannel\""
par SingleCell_Standalone_D2D.router.ppp[0].phys$o.channel typename "\"ned.IdealChannel\""
par SingleCell_Standalone_D2D.router.pppg$i[1].channel typename "\"ned.IdealChannel\""
par SingleCell_Standalone_D2D.router.ppp[1].phys$o.channel typename "\"ned.IdealChannel\""
par SingleCell_Standalone_D2D.router.interfaceTable typename "\"inet.networklayer.common.InterfaceTable\""
par SingleCell_Standalone_D2D.router.interfaceTable displayAddresses false
par SingleCell_Standalone_D2D.router.cb typename "\"inet.common.MessageDispatcher\""
par SingleCell_Standalone_D2D.router.cb displayStringTextFormat "\"processed %p pk (%l)\""
par SingleCell_Standalone_D2D.router.cb forwardServiceRegistration true
par SingleCell_Standalone_D2D.router.cb forwardProtocolRegistration true
par SingleCell_Standalone_D2D.router.bl typename "\"inet.common.MessageDispatcher\""
par SingleCell_Standalone_D2D.router.bl displayStringTextFormat "\"processed %p pk (%l)\""
par SingleCell_Standalone_D2D.router.bl forwardServiceRegistration true
par SingleCell_Standalone_D2D.router.bl forwardProtocolRegistration true
par SingleCell_Standalone_D2D.router.li typename "\"inet.common.MessageDispatcher\""
par SingleCell_Standalone_D2D.router.li displayStringTextFormat "\"processed %p pk (%l)\""
par SingleCell_Standalone_D2D.router.li forwardServiceRegistration true
par SingleCell_Standalone_D2D.router.li forwardProtocolRegistration true
par SingleCell_Standalone_D2D.router.lo[0].upperLayerIn.channel typename "\"ned.IdealChannel\""
par SingleCell_Standalone_D2D.router.lo[0].lo.upperLayerOut.channel typename "\"ned.IdealChannel\""
par SingleCell_Standalone_D2D.router.lo[0].lo typename "\"inet.linklayer.loopback.Loopback\""
par SingleCell_Standalone_D2D.router.lo[0].lo interfaceTableModule "\"SingleCell_Standalone_D2D.router.interfaceTable\""
par SingleCell_Standalone_D2D.router.lo[0].lo mtu 4470B
attr unit B
scalar SingleCell_Standalone_D2D.router.lo[0].lo rcvdPkFromHl:count 0
attr interpolationmode none
attr recordingmode count
attr source packetReceivedFromUpper
attr title "packets received from higher layer, count"
scalar SingleCell_Standalone_D2D.router.lo[0].lo rcvdPkFromHl:sum(packetBytes) 0
attr interpolationmode none
attr recordingmode sum(packetBytes)
attr source packetReceivedFromUpper
attr title "packets received from higher layer, sum(packetBytes)"
scalar SingleCell_Standalone_D2D.router.lo[0].lo passedUpPk:count 0
attr interpolationmode none
attr recordingmode count
attr source packetSentToUpper
attr title "packets passed to higher layer, count"
scalar SingleCell_Standalone_D2D.router.lo[0].lo passedUpPk:sum(packetBytes) 0
attr interpolationmode none
attr recordingmode sum(packetBytes)
attr source packetSentToUpper
attr title "packets passed to higher layer, sum(packetBytes)"
par SingleCell_Standalone_D2D.router.lo[0] typename "\"inet.linklayer.loopback.LoopbackInterface\""
par SingleCell_Standalone_D2D.router.lo[0] displayStringTextFormat "\"%a (%i)\\n%m\""
par SingleCell_Standalone_D2D.router.lo[0] recordPcap false
par SingleCell_Standalone_D2D.router.lo[0] numPcapRecorders 0
par SingleCell_Standalone_D2D.router.lo[0] interfaceTableModule "\"SingleCell_Standalone_D2D.router.interfaceTable\""
scalar SingleCell_Standalone_D2D.router.lo[0] packetDropInterfaceDown:count 0
attr interpolationmode none
attr recordingmode count
attr source packetDropReasonIsInterfaceDown(packetDropped)
attr title "packet drops: interface down, count"
scalar SingleCell_Standalone_D2D.router.lo[0] packetDropInterfaceDown:sum(packetBytes) 0
attr interpolationmode none
attr recordingmode sum(packetBytes)
attr source packetDropReasonIsInterfaceDown(packetDropped)
attr title "packet drops: interface down, sum(packetBytes)"
scalar SingleCell_Standalone_D2D.router.lo[0] packetDropNoCarrier:count 0
attr interpolationmode none
attr recordingmode count
attr source packetDropReasonIsNoCarrier(packetDropped)
attr title "packet drops: no carrier, count"
scalar SingleCell_Standalone_D2D.router.lo[0] packetDropNoCarrier:sum(packetBytes) 0
attr interpolationmode none
attr recordingmode sum(packetBytes)
attr source packetDropReasonIsNoCarrier(packetDropped)
attr title "packet drops: no carrier, sum(packetBytes)"
par SingleCell_Standalone_D2D.router.ppp[0].phys$i.channel typename "\"ned.IdealChannel\""
par SingleCell_Standalone_D2D.router.ppp[0].ppp.phys$o.channel typename "\"ned.IdealChannel\""
par SingleCell_Standalone_D2D.router.ppp[0].ppp.upperLayerOut.channel typename "\"ned.IdealChannel\""
par SingleCell_Standalone_D2D.router.ppp[0].upperLayerIn.channel typename "\"ned.IdealChannel\""
par SingleCell_Standalone_D2D.router.ppp[0].queue typename "\"inet.queueing.queue.DropTailQueue\""
par SingleCell_Standalone_D2D.router.ppp[0].queue displayStringTextFormat "\"contains %p pk (%l) pushed %u\\npulled %o removed %r dropped %d\""
par SingleCell_Standalone_D2D.router.ppp[0].queue packetCapacity 10000
par SingleCell_Standalone_D2D.router.ppp[0].queue dataCapacity -1b
attr unit b
par SingleCell_Standalone_D2D.router.ppp[0].queue dropperClass "\"inet::queueing::PacketAtCollectionEndDropper\""
par SingleCell_Standalone_D2D.router.ppp[0].queue comparatorClass "\"\""
par SingleCell_Standalone_D2D.router.ppp[0].queue bufferModule "\"\""
scalar SingleCell_Standalone_D2D.router.ppp[0].queue queueLength:last nan
attr autoWarmupFilter false
attr interpolationmode sample-hold
attr recordingmode last
attr source "warmup(atomic(constant0(packetPushEnded) + count(packetPushStarted) - count(packetPulled) - count(packetRemoved) - count(packetDropped)))"
attr title "queue length, last"
attr unit pk
scalar SingleCell_Standalone_D2D.router.ppp[0].queue queueLength:max nan
attr autoWarmupFilter false
attr interpolationmode sample-hold
attr recordingmode max
attr source "warmup(atomic(constant0(packetPushEnded) + count(packetPushStarted) - count(packetPulled) - count(packetRemoved) - count(packetDropped)))"
attr title "queue length, max"
attr unit pk
scalar SingleCell_Standalone_D2D.router.ppp[0].queue queueLength:timeavg -nan
attr autoWarmupFilter false
attr interpolationmode sample-hold
attr recordingmode timeavg
attr source "warmup(atomic(constant0(packetPushEnded) + count(packetPushStarted) - count(packetPulled) - count(packetRemoved) - count(packetDropped)))"
attr title "queue length, timeavg"
attr unit pk
scalar SingleCell_Standalone_D2D.router.ppp[0].queue queueBitLength:last nan
attr autoWarmupFilter false
attr interpolationmode sample-hold
attr recordingmode last
attr source "warmup(atomic(constant0(packetPushEnded) + sum(packetLength(packetPushStarted)) - sum(packetLength(packetPulled)) - sum(packetLength(packetRemoved)) - sum(packetLength(packetDropped))))"
attr title "queue bit length, last"
attr unit b
scalar SingleCell_Standalone_D2D.router.ppp[0].queue queueBitLength:max nan
attr autoWarmupFilter false
attr interpolationmode sample-hold
attr recordingmode max
attr source "warmup(atomic(constant0(packetPushEnded) + sum(packetLength(packetPushStarted)) - sum(packetLength(packetPulled)) - sum(packetLength(packetRemoved)) - sum(packetLength(packetDropped))))"
attr title "queue bit length, max"
attr unit b
scalar SingleCell_Standalone_D2D.router.ppp[0].queue queueBitLength:timeavg -nan
attr autoWarmupFilter false
attr interpolationmode sample-hold
attr recordingmode timeavg
attr source "warmup(atomic(constant0(packetPushEnded) + sum(packetLength(packetPushStarted)) - sum(packetLength(packetPulled)) - sum(packetLength(packetRemoved)) - sum(packetLength(packetDropped))))"
attr title "queue bit length, timeavg"
attr unit b
statistic SingleCell_Standalone_D2D.router.ppp[0].queue queueingTime:histogram
field count 0
field mean -nan
field stddev nan
field min nan
field max nan
field sum 0
field sqrsum 0
attr interpolationmode none
attr recordingmode histogram
attr source queueingTime(packetPulled)
attr title "queueing times"
attr unit s
bin	-inf	0
bin	0	0
bin	1	0
scalar SingleCell_Standalone_D2D.router.ppp[0].queue outgoingPackets:count 0
attr recordingmode count
attr source packetPulled
attr title "outgoing packets, count"
attr unit pk
scalar SingleCell_Standalone_D2D.router.ppp[0].queue outgoingPacketLengths:sum 0
attr interpolationmode none
attr recordingmode sum
attr source packetLength(packetPulled)
attr title "outgoing packet lengths, sum"
attr unit b
statistic SingleCell_Standalone_D2D.router.ppp[0].queue outgoingPacketLengths:histogram
field count 0
field mean -nan
field stddev nan
field min nan
field max nan
field sum 0
field sqrsum 0
attr interpolationmode none
attr recordingmode histogram
attr source packetLength(packetPulled)
attr title "outgoing packet lengths"
attr unit b
bin	-inf	0
bin	0	0
bin	1	0
statistic SingleCell_Standalone_D2D.router.ppp[0].queue flowQueueingTime:histogram
field count 0
field mean -nan
field stddev nan
field min nan
field max nan
field sum 0
field sqrsum 0
attr interpolationmode none
attr recordingmode histogram
attr source queueingTime(demuxFlow(packetPulled))
attr title "flow queueing times"
attr unit s
bin	-inf	0
bin	0	0
bin	1	0
scalar SingleCell_Standalone_D2D.router.ppp[0].queue incomingPackets:count 0
attr recordingmode count
attr source packetPushStarted
attr title "incoming packets, count"
attr unit pk
scalar SingleCell_Standalone_D2D.router.ppp[0].queue incomingPacketLengths:sum 0
attr interpolationmode none
attr recordingmode sum
attr source packetLength(packetPushStarted)
attr title "incoming packet lengths, sum"
attr unit b
statistic SingleCell_Standalone_D2D.router.ppp[0].queue incomingPacketLengths:histogram
field count 0
field mean -nan
field stddev nan
field min nan
field max nan
field sum 0
field sqrsum 0
attr interpolationmode none
attr recordingmode histogram
attr source packetLength(packetPushStarted)
attr title "incoming packet lengths"
attr unit b
bin	-inf	0
bin	0	0
bin	1	0
scalar SingleCell_Standalone_D2D.router.ppp[0].queue droppedPacketsQueueOverflow:count 0
attr interpolationmode none
attr recordingmode count
attr source packetDropReasonIsQueueOverflow(packetDropped)
attr title "dropped packets: queue overflow, count"
attr unit pk
scalar SingleCell_Standalone_D2D.router.ppp[0].queue droppedPacketLengthsQueueOverflow:sum 0
attr interpolationmode none
attr recordingmode sum
attr source packetLength(packetDropReasonIsQueueOverflow(packetDropped))
attr title "dropped packet lengths: queue overflow, sum"
attr unit b
par SingleCell_Standalone_D2D.router.ppp[0].ppp typename "\"inet.linklayer.ppp.Ppp\""
par SingleCell_Standalone_D2D.router.ppp[0].ppp interfaceTableModule "\"SingleCell_Standalone_D2D.router.interfaceTable\""
par SingleCell_Standalone_D2D.router.ppp[0].ppp displayStringTextFormat "\"rate: %b\\nsent: %s, rcvd: %r\\nqueue: %q, drop: %d\""
par SingleCell_Standalone_D2D.router.ppp[0].ppp sendRawBytes false
par SingleCell_Standalone_D2D.router.ppp[0].ppp mtu 4470B
attr unit B
par SingleCell_Standalone_D2D.router.ppp[0].ppp stopOperationExtraTime -1s
attr unit s
par SingleCell_Standalone_D2D.router.ppp[0].ppp stopOperationTimeout 2s
attr unit s
scalar SingleCell_Standalone_D2D.router.ppp[0].ppp transmissionState:timeavg 0
attr interpolationmode sample-hold
attr recordingmode timeavg
attr source transmissionStateChanged
attr title "tx state, timeavg"
scalar SingleCell_Standalone_D2D.router.ppp[0].ppp rxPkOk:count 0
attr interpolationmode none
attr recordingmode count
attr source rxPkOk
attr title "packets received OK, count"
scalar SingleCell_Standalone_D2D.router.ppp[0].ppp rxPkOk:sum(packetBytes) 0
attr interpolationmode none
attr recordingmode sum(packetBytes)
attr source rxPkOk
attr title "packets received OK, sum(packetBytes)"
scalar SingleCell_Standalone_D2D.router.ppp[0].ppp txPk:count 0
attr interpolationmode none
attr recordingmode count
attr source packetSentToLower
attr title "packets transmitted, count"
scalar SingleCell_Standalone_D2D.router.ppp[0].ppp txPk:sum(packetBytes) 0
attr interpolationmode none
attr recordingmode sum(packetBytes)
attr source packetSentToLower
attr title "packets transmitted, sum(packetBytes)"
scalar SingleCell_Standalone_D2D.router.ppp[0].ppp rcvdPkFromHl:count 0
attr interpolationmode none
attr recordingmode count
attr source packetReceivedFromUpper
attr title "packets received from higher layer, count"
scalar SingleCell_Standalone_D2D.router.ppp[0].ppp rcvdPkFromHl:sum(packetBytes) 0
attr interpolationmode none
attr recordingmode sum(packetBytes)
attr source packetReceivedFromUpper
attr title "packets received from higher layer, sum(packetBytes)"
scalar SingleCell_Standalone_D2D.router.ppp[0].ppp passedUpPk:count 0
attr interpolationmode none
attr recordingmode count
attr source packetSentToUpper
attr title "packets passed to higher layer, count"
scalar SingleCell_Standalone_D2D.router.ppp[0].ppp passedUpPk:sum(packetBytes) 0
attr interpolationmode none
attr recordingmode sum(packetBytes)
attr source packetSentToUpper
attr title "packets passed to higher layer, sum(packetBytes)"
scalar SingleCell_Standalone_D2D.router.ppp[0].ppp packetDropIncorrectlyReceived:count 0
attr interpolationmode none
attr recordingmode count
attr source packetDropReasonIsIncorrectlyReceived(packetDropped)
attr title "packet drop: incorrectly received, count"
scalar SingleCell_Standalone_D2D.router.ppp[0].ppp packetDropIncorrectlyReceived:sum(packetBytes) 0
attr interpolationmode none
attr recordingmode sum(packetBytes)
attr source packetDropReasonIsIncorrectlyReceived(packetDropped)
attr title "packet drop: incorrectly received, sum(packetBytes)"
scalar SingleCell_Standalone_D2D.router.ppp[0].ppp packetDropInterfaceDown:count 0
attr interpolationmode none
attr recordingmode count
attr source packetDropReasonIsInterfaceDown(packetDropped)
attr title "packet drop: interface down, count"
scalar SingleCell_Standalone_D2D.router.ppp[0].ppp packetDropInterfaceDown:sum(packetBytes) 0
attr interpolationmode none
attr recordingmode sum(packetBytes)
attr source packetDropReasonIsInterfaceDown(packetDropped)
attr title "packet drop: interface down, sum(packetBytes)"
par SingleCell_Standalone_D2D.router.ppp[0] typename "\"inet.linklayer.ppp.PppInterface\""
par SingleCell_Standalone_D2D.router.ppp[0] displayStringTextFormat "\"%a (%i)\\n%m\""
par SingleCell_Standalone_D2D.router.ppp[0] recordPcap false
par SingleCell_Standalone_D2D.router.ppp[0] numPcapRecorders 0
par SingleCell_Standalone_D2D.router.ppp[0] interfaceTableModule "\"SingleCell_Standalone_D2D.router.interfaceTable\""
scalar SingleCell_Standalone_D2D.router.ppp[0] packetDropInterfaceDown:count 0
attr interpolationmode none
attr recordingmode count
attr source packetDropReasonIsInterfaceDown(packetDropped)
attr title "packet drops: interface down, count"
scalar SingleCell_Standalone_D2D.router.ppp[0] packetDropInterfaceDown:sum(packetBytes) 0
attr interpolationmode none
attr recordingmode sum(packetBytes)
attr source packetDropReasonIsInterfaceDown(packetDropped)
attr title "packet drops: interface down, sum(packetBytes)"
scalar SingleCell_Standalone_D2D.router.ppp[0] packetDropNoCarrier:count 0
attr interpolationmode none
attr recordingmode count
attr source packetDropReasonIsNoCarrier(packetDropped)
attr title "packet drops: no carrier, count"
scalar SingleCell_Standalone_D2D.router.ppp[0] packetDropNoCarrier:sum(packetBytes) 0
attr interpolationmode none
attr recordingmode sum(packetBytes)
attr source packetDropReasonIsNoCarrier(packetDropped)
attr title "packet drops: no carrier, sum(packetBytes)"
par SingleCell_Standalone_D2D.router.ppp[1].phys$i.channel typename "\"ned.IdealChannel\""
par SingleCell_Standalone_D2D.router.ppp[1].ppp.phys$o.channel typename "\"ned.IdealChannel\""
par SingleCell_Standalone_D2D.router.ppp[1].ppp.upperLayerOut.channel typename "\"ned.IdealChannel\""
par SingleCell_Standalone_D2D.router.ppp[1].upperLayerIn.channel typename "\"ned.IdealChannel\""
par SingleCell_Standalone_D2D.router.ppp[1].queue typename "\"inet.queueing.queue.DropTailQueue\""
par SingleCell_Standalone_D2D.router.ppp[1].queue displayStringTextFormat "\"contains %p pk (%l) pushed %u\\npulled %o removed %r dropped %d\""
par SingleCell_Standalone_D2D.router.ppp[1].queue packetCapacity 10000
par SingleCell_Standalone_D2D.router.ppp[1].queue dataCapacity -1b
attr unit b
par SingleCell_Standalone_D2D.router.ppp[1].queue dropperClass "\"inet::queueing::PacketAtCollectionEndDropper\""
par SingleCell_Standalone_D2D.router.ppp[1].queue comparatorClass "\"\""
par SingleCell_Standalone_D2D.router.ppp[1].queue bufferModule "\"\""
scalar SingleCell_Standalone_D2D.router.ppp[1].queue queueLength:last nan
attr autoWarmupFilter false
attr interpolationmode sample-hold
attr recordingmode last
attr source "warmup(atomic(constant0(packetPushEnded) + count(packetPushStarted) - count(packetPulled) - count(packetRemoved) - count(packetDropped)))"
attr title "queue length, last"
attr unit pk
scalar SingleCell_Standalone_D2D.router.ppp[1].queue queueLength:max nan
attr autoWarmupFilter false
attr interpolationmode sample-hold
attr recordingmode max
attr source "warmup(atomic(constant0(packetPushEnded) + count(packetPushStarted) - count(packetPulled) - count(packetRemoved) - count(packetDropped)))"
attr title "queue length, max"
attr unit pk
scalar SingleCell_Standalone_D2D.router.ppp[1].queue queueLength:timeavg -nan
attr autoWarmupFilter false
attr interpolationmode sample-hold
attr recordingmode timeavg
attr source "warmup(atomic(constant0(packetPushEnded) + count(packetPushStarted) - count(packetPulled) - count(packetRemoved) - count(packetDropped)))"
attr title "queue length, timeavg"
attr unit pk
scalar SingleCell_Standalone_D2D.router.ppp[1].queue queueBitLength:last nan
attr autoWarmupFilter false
attr interpolationmode sample-hold
attr recordingmode last
attr source "warmup(atomic(constant0(packetPushEnded) + sum(packetLength(packetPushStarted)) - sum(packetLength(packetPulled)) - sum(packetLength(packetRemoved)) - sum(packetLength(packetDropped))))"
attr title "queue bit length, last"
attr unit b
scalar SingleCell_Standalone_D2D.router.ppp[1].queue queueBitLength:max nan
attr autoWarmupFilter false
attr interpolationmode sample-hold
attr recordingmode max
attr source "warmup(atomic(constant0(packetPushEnded) + sum(packetLength(packetPushStarted)) - sum(packetLength(packetPulled)) - sum(packetLength(packetRemoved)) - sum(packetLength(packetDropped))))"
attr title "queue bit length, max"
attr unit b
scalar SingleCell_Standalone_D2D.router.ppp[1].queue queueBitLength:timeavg -nan
attr autoWarmupFilter false
attr interpolationmode sample-hold
attr recordingmode timeavg
attr source "warmup(atomic(constant0(packetPushEnded) + sum(packetLength(packetPushStarted)) - sum(packetLength(packetPulled)) - sum(packetLength(packetRemoved)) - sum(packetLength(packetDropped))))"
attr title "queue bit length, timeavg"
attr unit b
statistic SingleCell_Standalone_D2D.router.ppp[1].queue queueingTime:histogram
field count 0
field mean -nan
field stddev nan
field min nan
field max nan
field sum 0
field sqrsum 0
attr interpolationmode none
attr recordingmode histogram
attr source queueingTime(packetPulled)
attr title "queueing times"
attr unit s
bin	-inf	0
bin	0	0
bin	1	0
scalar SingleCell_Standalone_D2D.router.ppp[1].queue outgoingPackets:count 0
attr recordingmode count
attr source packetPulled
attr title "outgoing packets, count"
attr unit pk
scalar SingleCell_Standalone_D2D.router.ppp[1].queue outgoingPacketLengths:sum 0
attr interpolationmode none
attr recordingmode sum
attr source packetLength(packetPulled)
attr title "outgoing packet lengths, sum"
attr unit b
statistic SingleCell_Standalone_D2D.router.ppp[1].queue outgoingPacketLengths:histogram
field count 0
field mean -nan
field stddev nan
field min nan
field max nan
field sum 0
field sqrsum 0
attr interpolationmode none
attr recordingmode histogram
attr source packetLength(packetPulled)
attr title "outgoing packet lengths"
attr unit b
bin	-inf	0
bin	0	0
bin	1	0
statistic SingleCell_Standalone_D2D.router.ppp[1].queue flowQueueingTime:histogram
field count 0
field mean -nan
field stddev nan
field min nan
field max nan
field sum 0
field sqrsum 0
attr interpolationmode none
attr recordingmode histogram
attr source queueingTime(demuxFlow(packetPulled))
attr title "flow queueing times"
attr unit s
bin	-inf	0
bin	0	0
bin	1	0
scalar SingleCell_Standalone_D2D.router.ppp[1].queue incomingPackets:count 0
attr recordingmode count
attr source packetPushStarted
attr title "incoming packets, count"
attr unit pk
scalar SingleCell_Standalone_D2D.router.ppp[1].queue incomingPacketLengths:sum 0
attr interpolationmode none
attr recordingmode sum
attr source packetLength(packetPushStarted)
attr title "incoming packet lengths, sum"
attr unit b
statistic SingleCell_Standalone_D2D.router.ppp[1].queue incomingPacketLengths:histogram
field count 0
field mean -nan
field stddev nan
field min nan
field max nan
field sum 0
field sqrsum 0
attr interpolationmode none
attr recordingmode histogram
attr source packetLength(packetPushStarted)
attr title "incoming packet lengths"
attr unit b
bin	-inf	0
bin	0	0
bin	1	0
scalar SingleCell_Standalone_D2D.router.ppp[1].queue droppedPacketsQueueOverflow:count 0
attr interpolationmode none
attr recordingmode count
attr source packetDropReasonIsQueueOverflow(packetDropped)
attr title "dropped packets: queue overflow, count"
attr unit pk
scalar SingleCell_Standalone_D2D.router.ppp[1].queue droppedPacketLengthsQueueOverflow:sum 0
attr interpolationmode none
attr recordingmode sum
attr source packetLength(packetDropReasonIsQueueOverflow(packetDropped))
attr title "dropped packet lengths: queue overflow, sum"
attr unit b
par SingleCell_Standalone_D2D.router.ppp[1].ppp typename "\"inet.linklayer.ppp.Ppp\""
par SingleCell_Standalone_D2D.router.ppp[1].ppp interfaceTableModule "\"SingleCell_Standalone_D2D.router.interfaceTable\""
par SingleCell_Standalone_D2D.router.ppp[1].ppp displayStringTextFormat "\"rate: %b\\nsent: %s, rcvd: %r\\nqueue: %q, drop: %d\""
par SingleCell_Standalone_D2D.router.ppp[1].ppp sendRawBytes false
par SingleCell_Standalone_D2D.router.ppp[1].ppp mtu 4470B
attr unit B
par SingleCell_Standalone_D2D.router.ppp[1].ppp stopOperationExtraTime -1s
attr unit s
par SingleCell_Standalone_D2D.router.ppp[1].ppp stopOperationTimeout 2s
attr unit s
scalar SingleCell_Standalone_D2D.router.ppp[1].ppp transmissionState:timeavg 0
attr interpolationmode sample-hold
attr recordingmode timeavg
attr source transmissionStateChanged
attr title "tx state, timeavg"
scalar SingleCell_Standalone_D2D.router.ppp[1].ppp rxPkOk:count 0
attr interpolationmode none
attr recordingmode count
attr source rxPkOk
attr title "packets received OK, count"
scalar SingleCell_Standalone_D2D.router.ppp[1].ppp rxPkOk:sum(packetBytes) 0
attr interpolationmode none
attr recordingmode sum(packetBytes)
attr source rxPkOk
attr title "packets received OK, sum(packetBytes)"
scalar SingleCell_Standalone_D2D.router.ppp[1].ppp txPk:count 0
attr interpolationmode none
attr recordingmode count
attr source packetSentToLower
attr title "packets transmitted, count"
scalar SingleCell_Standalone_D2D.router.ppp[1].ppp txPk:sum(packetBytes) 0
attr interpolationmode none
attr recordingmode sum(packetBytes)
attr source packetSentToLower
attr title "packets transmitted, sum(packetBytes)"
scalar SingleCell_Standalone_D2D.router.ppp[1].ppp rcvdPkFromHl:count 0
attr interpolationmode none
attr recordingmode count
attr source packetReceivedFromUpper
attr title "packets received from higher layer, count"
scalar SingleCell_Standalone_D2D.router.ppp[1].ppp rcvdPkFromHl:sum(packetBytes) 0
attr interpolationmode none
attr recordingmode sum(packetBytes)
attr source packetReceivedFromUpper
attr title "packets received from higher layer, sum(packetBytes)"
scalar SingleCell_Standalone_D2D.router.ppp[1].ppp passedUpPk:count 0
attr interpolationmode none
attr recordingmode count
attr source packetSentToUpper
attr title "packets passed to higher layer, count"
scalar SingleCell_Standalone_D2D.router.ppp[1].ppp passedUpPk:sum(packetBytes) 0
attr interpolationmode none
attr recordingmode sum(packetBytes)
attr source packetSentToUpper
attr title "packets passed to higher layer, sum(packetBytes)"
scalar SingleCell_Standalone_D2D.router.ppp[1].ppp packetDropIncorrectlyReceived:count 0
attr interpolationmode none
attr recordingmode count
attr source packetDropReasonIsIncorrectlyReceived(packetDropped)
attr title "packet drop: incorrectly received, count"
scalar SingleCell_Standalone_D2D.router.ppp[1].ppp packetDropIncorrectlyReceived:sum(packetBytes) 0
attr interpolationmode none
attr recordingmode sum(packetBytes)
attr source packetDropReasonIsIncorrectlyReceived(packetDropped)
attr title "packet drop: incorrectly received, sum(packetBytes)"
scalar SingleCell_Standalone_D2D.router.ppp[1].ppp packetDropInterfaceDown:count 0
attr interpolationmode none
attr recordingmode count
attr source packetDropReasonIsInterfaceDown(packetDropped)
attr title "packet drop: interface down, count"
scalar SingleCell_Standalone_D2D.router.ppp[1].ppp packetDropInterfaceDown:sum(packetBytes) 0
attr interpolationmode none
attr recordingmode sum(packetBytes)
attr source packetDropReasonIsInterfaceDown(packetDropped)
attr title "packet drop: interface down, sum(packetBytes)"
par SingleCell_Standalone_D2D.router.ppp[1] typename "\"inet.linklayer.ppp.PppInterface\""
par SingleCell_Standalone_D2D.router.ppp[1] displayStringTextFormat "\"%a (%i)\\n%m\""
par SingleCell_Standalone_D2D.router.ppp[1] recordPcap false
par SingleCell_Standalone_D2D.router.ppp[1] numPcapRecorders 0
par SingleCell_Standalone_D2D.router.ppp[1] interfaceTableModule "\"SingleCell_Standalone_D2D.router.interfaceTable\""
scalar SingleCell_Standalone_D2D.router.ppp[1] packetDropInterfaceDown:count 0
attr interpolationmode none
attr recordingmode count
attr source packetDropReasonIsInterfaceDown(packetDropped)
attr title "packet drops: interface down, count"
scalar SingleCell_Standalone_D2D.router.ppp[1] packetDropInterfaceDown:sum(packetBytes) 0
attr interpolationmode none
attr recordingmode sum(packetBytes)
attr source packetDropReasonIsInterfaceDown(packetDropped)
attr title "packet drops: interface down, sum(packetBytes)"
scalar SingleCell_Standalone_D2D.router.ppp[1] packetDropNoCarrier:count 0
attr interpolationmode none
attr recordingmode count
attr source packetDropReasonIsNoCarrier(packetDropped)
attr title "packet drops: no carrier, count"
scalar SingleCell_Standalone_D2D.router.ppp[1] packetDropNoCarrier:sum(packetBytes) 0
attr interpolationmode none
attr recordingmode sum(packetBytes)
attr source packetDropReasonIsNoCarrier(packetDropped)
attr title "packet drops: no carrier, sum(packetBytes)"
par SingleCell_Standalone_D2D.router.ipv4.transportIn.channel typename "\"ned.IdealChannel\""
par SingleCell_Standalone_D2D.router.ipv4.up.out[0].channel typename "\"ned.IdealChannel\""
par SingleCell_Standalone_D2D.router.ipv4.lp.out[2].channel typename "\"ned.IdealChannel\""
par SingleCell_Standalone_D2D.router.ipv4.ifIn.channel typename "\"ned.IdealChannel\""
par SingleCell_Standalone_D2D.router.ipv4.configurator typename "\"inet.networklayer.configurator.ipv4.Ipv4NodeConfigurator\""
par SingleCell_Standalone_D2D.router.ipv4.configurator interfaceTableModule "\"SingleCell_Standalone_D2D.router.interfaceTable\""
par SingleCell_Standalone_D2D.router.ipv4.configurator routingTableModule "\"SingleCell_Standalone_D2D.router.ipv4.routingTable\""
par SingleCell_Standalone_D2D.router.ipv4.configurator networkConfiguratorModule "\"configurator\""
par SingleCell_Standalone_D2D.router.ipv4.configurator configureRoutingTable true
par SingleCell_Standalone_D2D.router.ipv4.routingTable typename "\"inet.networklayer.ipv4.Ipv4RoutingTable\""
par SingleCell_Standalone_D2D.router.ipv4.routingTable interfaceTableModule "\"SingleCell_Standalone_D2D.router.interfaceTable\""
par SingleCell_Standalone_D2D.router.ipv4.routingTable routerId "\"auto\""
par SingleCell_Standalone_D2D.router.ipv4.routingTable netmaskRoutes "\"*\""
par SingleCell_Standalone_D2D.router.ipv4.routingTable forwarding true
par SingleCell_Standalone_D2D.router.ipv4.routingTable multicastForwarding false
par SingleCell_Standalone_D2D.router.ipv4.routingTable useAdminDist false
par SingleCell_Standalone_D2D.router.ipv4.routingTable routingFile "\"\""
par SingleCell_Standalone_D2D.router.ipv4.natTable typename "\"inet.networklayer.ipv4.Ipv4NatTable\""
par SingleCell_Standalone_D2D.router.ipv4.natTable networkProtocolModule "\"^.ip\""
par SingleCell_Standalone_D2D.router.ipv4.natTable config "<config/> at content:1"
par SingleCell_Standalone_D2D.router.ipv4.up typename "\"inet.common.MessageDispatcher\""
par SingleCell_Standalone_D2D.router.ipv4.up displayStringTextFormat "\"processed %p pk (%l)\""
par SingleCell_Standalone_D2D.router.ipv4.up forwardServiceRegistration true
par SingleCell_Standalone_D2D.router.ipv4.up forwardProtocolRegistration true
par SingleCell_Standalone_D2D.router.ipv4.igmp typename "\"inet.networklayer.ipv4.Igmpv2\""
par SingleCell_Standalone_D2D.router.ipv4.igmp interfaceTableModule "\"SingleCell_Standalone_D2D.router.interfaceTable\""
par SingleCell_Standalone_D2D.router.ipv4.igmp routingTableModule "\"SingleCell_Standalone_D2D.router.ipv4.routingTable\""
par SingleCell_Standalone_D2D.router.ipv4.igmp crcMode "\"declared\""
attr enum declared,computed
par SingleCell_Standalone_D2D.router.ipv4.igmp enabled true
par SingleCell_Standalone_D2D.router.ipv4.igmp robustnessVariable 2
par SingleCell_Standalone_D2D.router.ipv4.igmp queryInterval 125s
attr unit s
par SingleCell_Standalone_D2D.router.ipv4.igmp queryResponseInterval 10s
attr unit s
par SingleCell_Standalone_D2D.router.ipv4.igmp groupMembershipInterval 260s
attr unit s
par SingleCell_Standalone_D2D.router.ipv4.igmp otherQuerierPresentInterval 255s
attr unit s
par SingleCell_Standalone_D2D.router.ipv4.igmp startupQueryInterval 31.25s
attr unit s
par SingleCell_Standalone_D2D.router.ipv4.igmp startupQueryCount 2
par SingleCell_Standalone_D2D.router.ipv4.igmp lastMemberQueryInterval 1s
attr unit s
par SingleCell_Standalone_D2D.router.ipv4.igmp lastMemberQueryCount 2
par SingleCell_Standalone_D2D.router.ipv4.igmp unsolicitedReportInterval 10s
attr unit s
par SingleCell_Standalone_D2D.router.ipv4.icmp typename "\"inet.networklayer.ipv4.Icmp\""
par SingleCell_Standalone_D2D.router.ipv4.icmp interfaceTableModule "\"SingleCell_Standalone_D2D.router.interfaceTable\""
par SingleCell_Standalone_D2D.router.ipv4.icmp routingTableModule "\"SingleCell_Standalone_D2D.router.ipv4.routingTable\""
par SingleCell_Standalone_D2D.router.ipv4.icmp crcMode "\"declared\""
attr enum declared,computed
attr mutable ""
par SingleCell_Standalone_D2D.router.ipv4.icmp quoteLength 8B
attr mutable ""
attr unit B
par SingleCell_Standalone_D2D.router.ipv4.mp typename "\"inet.common.MessageDispatcher\""
par SingleCell_Standalone_D2D.router.ipv4.mp displayStringTextFormat "\"processed %p pk (%l)\""
par SingleCell_Standalone_D2D.router.ipv4.mp forwardServiceRegistration true
par SingleCell_Standalone_D2D.router.ipv4.mp forwardProtocolRegistration true
par SingleCell_Standalone_D2D.router.ipv4.ip typename "\"inet.networklayer.ipv4.Ipv4\""
par SingleCell_Standalone_D2D.router.ipv4.ip interfaceTableModule "\"SingleCell_Standalone_D2D.router.interfaceTable\""
par SingleCell_Standalone_D2D.router.ipv4.ip routingTableModule "\"SingleCell_Standalone_D2D.router.ipv4.routingTable\""
par SingleCell_Standalone_D2D.router.ipv4.ip arpModule "\"SingleCell_Standalone_D2D.router.ipv4.arp\""
par SingleCell_Standalone_D2D.router.ipv4.ip icmpModule "\"SingleCell_Standalone_D2D.router.ipv4.icmp\""
par SingleCell_Standalone_D2D.router.ipv4.ip crcMode "\"declared\""
attr enum declared,computed
par SingleCell_Standalone_D2D.router.ipv4.ip timeToLive 32
par SingleCell_Standalone_D2D.router.ipv4.ip multicastTimeToLive 32
par SingleCell_Standalone_D2D.router.ipv4.ip fragmentTimeout 60s
attr unit s
par SingleCell_Standalone_D2D.router.ipv4.ip limitedBroadcast false
par SingleCell_Standalone_D2D.router.ipv4.ip directBroadcastInterfaces "\"\""
scalar SingleCell_Standalone_D2D.router.ipv4.ip packetDropAddressResolutionFailed:count 0
attr interpolationmode none
attr recordingmode count
attr source packetDropReasonIsAddressResolutionFailed(packetDropped)
attr title "packet drop: address resolution failed, count"
scalar SingleCell_Standalone_D2D.router.ipv4.ip packetDropAddressResolutionFailed:sum(packetBytes) 0
attr interpolationmode none
attr recordingmode sum(packetBytes)
attr source packetDropReasonIsAddressResolutionFailed(packetDropped)
attr title "packet drop: address resolution failed, sum(packetBytes)"
scalar SingleCell_Standalone_D2D.router.ipv4.ip packetDropHopLimitReached:count 0
attr interpolationmode none
attr recordingmode count
attr source packetDropReasonIsHopLimitReached(packetDropped)
attr title "packet drop: hop limit reached, count"
scalar SingleCell_Standalone_D2D.router.ipv4.ip packetDropHopLimitReached:sum(packetBytes) 0
attr interpolationmode none
attr recordingmode sum(packetBytes)
attr source packetDropReasonIsHopLimitReached(packetDropped)
attr title "packet drop: hop limit reached, sum(packetBytes)"
scalar SingleCell_Standalone_D2D.router.ipv4.ip packetDropForwardingDisabled:count 0
attr interpolationmode none
attr recordingmode count
attr source packetDropReasonIsForwardingDisabled(packetDropped)
attr title "packet drop: forwarding disabled, count"
scalar SingleCell_Standalone_D2D.router.ipv4.ip packetDropForwardingDisabled:sum(packetBytes) 0
attr interpolationmode none
attr recordingmode sum(packetBytes)
attr source packetDropReasonIsForwardingDisabled(packetDropped)
attr title "packet drop: forwarding disabled, sum(packetBytes)"
scalar SingleCell_Standalone_D2D.router.ipv4.ip packetDropNoInterfaceFound:count 0
attr interpolationmode none
attr recordingmode count
attr source packetDropReasonIsNoInterfaceFound(packetDropped)
attr title "packet drop: no interface found, count"
scalar SingleCell_Standalone_D2D.router.ipv4.ip packetDropNoInterfaceFound:sum(packetBytes) 0
attr interpolationmode none
attr recordingmode sum(packetBytes)
attr source packetDropReasonIsNoInterfaceFound(packetDropped)
attr title "packet drop: no interface found, sum(packetBytes)"
scalar SingleCell_Standalone_D2D.router.ipv4.ip packetDropNoRouteFound:count 0
attr interpolationmode none
attr recordingmode count
attr source packetDropReasonIsNoRouteFound(packetDropped)
attr title "packet drop: no route found, count"
scalar SingleCell_Standalone_D2D.router.ipv4.ip packetDropNoRouteFound:sum(packetBytes) 0
attr interpolationmode none
attr recordingmode sum(packetBytes)
attr source packetDropReasonIsNoRouteFound(packetDropped)
attr title "packet drop: no route found, sum(packetBytes)"
scalar SingleCell_Standalone_D2D.router.ipv4.ip packetDropUndefined:count 0
attr interpolationmode none
attr recordingmode count
attr source packetDropReasonIsUndefined(packetDropped)
attr title "packet drop: undefined, count"
scalar SingleCell_Standalone_D2D.router.ipv4.ip packetDropUndefined:sum(packetBytes) 0
attr interpolationmode none
attr recordingmode sum(packetBytes)
attr source packetDropReasonIsUndefined(packetDropped)
attr title "packet drop: undefined, sum(packetBytes)"
par SingleCell_Standalone_D2D.router.ipv4.arp typename "\"inet.networklayer.arp.ipv4.Arp\""
par SingleCell_Standalone_D2D.router.ipv4.arp interfaceTableModule "\"SingleCell_Standalone_D2D.router.interfaceTable\""
par SingleCell_Standalone_D2D.router.ipv4.arp routingTableModule "\"SingleCell_Standalone_D2D.router.ipv4.routingTable\""
par SingleCell_Standalone_D2D.router.ipv4.arp retryTimeout 1s
attr unit s
par SingleCell_Standalone_D2D.router.ipv4.arp retryCount 3
par SingleCell_Standalone_D2D.router.ipv4.arp cacheTimeout 120s
attr unit s
par SingleCell_Standalone_D2D.router.ipv4.arp proxyArpInterfaces "\"*\""
scalar SingleCell_Standalone_D2D.router.ipv4.arp arpResolutionFailed:count 0
attr recordingmode count
attr title "ARP failed resolutions, count"
scalar SingleCell_Standalone_D2D.router.ipv4.arp arpResolutionCompleted:count 0
attr recordingmode count
attr title "ARP completed resolutions, count"
scalar SingleCell_Standalone_D2D.router.ipv4.arp arpResolutionInitiated:count 0
attr recordingmode count
attr title "ARP initiated resolutions, count"
scalar SingleCell_Standalone_D2D.router.ipv4.arp arpReplySent:count 0
attr recordingmode count
attr source arpReplySent
attr title "ARP replies sent, count"
scalar SingleCell_Standalone_D2D.router.ipv4.arp arpReplySent:sum(packetBytes) 0
attr recordingmode sum(packetBytes)
attr source arpReplySent
attr title "ARP replies sent, sum(packetBytes)"
scalar SingleCell_Standalone_D2D.router.ipv4.arp arpRequestSent:count 0
attr recordingmode count
attr source arpRequestSent
[...]
attr interpolationmode none
attr recordingmode sum(packetBytes)
attr source packetDropReasonIsInterfaceDown(packetDropped)
attr title "packet drops: interface down, sum(packetBytes)"
scalar SingleCell_Standalone_D2D.ueD2DRx[0].cellularNic packetDropNoCarrier:count 0
attr interpolationmode none
attr recordingmode count
attr source packetDropReasonIsNoCarrier(packetDropped)
attr title "packet drops: no carrier, count"
scalar SingleCell_Standalone_D2D.ueD2DRx[0].cellularNic packetDropNoCarrier:sum(packetBytes) 0
attr interpolationmode none
attr recordingmode sum(packetBytes)
attr source packetDropReasonIsNoCarrier(packetDropped)
attr title "packet drops: no carrier, sum(packetBytes)"
par SingleCell_Standalone_D2D.ueD2DRx[0].encap typename "\"inet.linklayer.ethernet.basic.EthernetEncapsulation\""
par SingleCell_Standalone_D2D.ueD2DRx[0].encap registerProtocol true
par SingleCell_Standalone_D2D.ueD2DRx[0].encap interfaceTableModule "\"SingleCell_Standalone_D2D.ueD2DRx[0].interfaceTable\""
par SingleCell_Standalone_D2D.ueD2DRx[0].encap fcsMode "\"declared\""
attr enum declared,computed
par SingleCell_Standalone_D2D.ueD2DRx[0].encap stopOperationExtraTime -1s
attr unit s
par SingleCell_Standalone_D2D.ueD2DRx[0].encap stopOperationTimeout 2s
attr unit s
scalar SingleCell_Standalone_D2D.ueD2DRx[0].encap pauseSent:count 0
attr recordingmode count
attr title "pause sent, count"
scalar SingleCell_Standalone_D2D.ueD2DRx[0].encap pauseSent:sum 0
attr recordingmode sum
attr title "pause sent, sum"
scalar SingleCell_Standalone_D2D.ueD2DRx[0].encap decapPk:count 0
attr interpolationmode none
attr recordingmode count
attr source decapPk
attr title "packets decapsulated, count"
scalar SingleCell_Standalone_D2D.ueD2DRx[0].encap decapPk:sum(packetBytes) 0
attr interpolationmode none
attr recordingmode sum(packetBytes)
attr source decapPk
attr title "packets decapsulated, sum(packetBytes)"
scalar SingleCell_Standalone_D2D.ueD2DRx[0].encap encapPk:count 0
attr interpolationmode none
attr recordingmode count
attr source encapPk
attr title "packets encapsulated, count"
scalar SingleCell_Standalone_D2D.ueD2DRx[0].encap encapPk:sum(packetBytes) 0
attr interpolationmode none
attr recordingmode sum(packetBytes)
attr source encapPk
attr title "packets encapsulated, sum(packetBytes)"
par SingleCell_Standalone_D2D.ueD2DRx[0].ipv4.transportIn.channel typename "\"ned.IdealChannel\""
par SingleCell_Standalone_D2D.ueD2DRx[0].ipv4.up.out[0].channel typename "\"ned.IdealChannel\""
par SingleCell_Standalone_D2D.ueD2DRx[0].ipv4.lp.out[2].channel typename "\"ned.IdealChannel\""
par SingleCell_Standalone_D2D.ueD2DRx[0].ipv4.ifIn.channel typename "\"ned.IdealChannel\""
par SingleCell_Standalone_D2D.ueD2DRx[0].ipv4.configurator typename "\"inet.networklayer.configurator.ipv4.Ipv4NodeConfigurator\""
par SingleCell_Standalone_D2D.ueD2DRx[0].ipv4.configurator interfaceTableModule "\"SingleCell_Standalone_D2D.ueD2DRx[0].interfaceTable\""
par SingleCell_Standalone_D2D.ueD2DRx[0].ipv4.configurator routingTableModule "\"SingleCell_Standalone_D2D.ueD2DRx[0].ipv4.routingTable\""
par SingleCell_Standalone_D2D.ueD2DRx[0].ipv4.configurator networkConfiguratorModule "\"configurator\""
par SingleCell_Standalone_D2D.ueD2DRx[0].ipv4.configurator configureRoutingTable true
par SingleCell_Standalone_D2D.ueD2DRx[0].ipv4.routingTable typename "\"inet.networklayer.ipv4.Ipv4RoutingTable\""
par SingleCell_Standalone_D2D.ueD2DRx[0].ipv4.routingTable interfaceTableModule "\"SingleCell_Standalone_D2D.ueD2DRx[0].interfaceTable\""
par SingleCell_Standalone_D2D.ueD2DRx[0].ipv4.routingTable routerId "\"auto\""
par SingleCell_Standalone_D2D.ueD2DRx[0].ipv4.routingTable netmaskRoutes "\"*\""
par SingleCell_Standalone_D2D.ueD2DRx[0].ipv4.routingTable forwarding false
par SingleCell_Standalone_D2D.ueD2DRx[0].ipv4.routingTable multicastForwarding false
par SingleCell_Standalone_D2D.ueD2DRx[0].ipv4.routingTable useAdminDist false
par SingleCell_Standalone_D2D.ueD2DRx[0].ipv4.routingTable routingFile "\"\""
par SingleCell_Standalone_D2D.ueD2DRx[0].ipv4.natTable typename "\"inet.networklayer.ipv4.Ipv4NatTable\""
par SingleCell_Standalone_D2D.ueD2DRx[0].ipv4.natTable networkProtocolModule "\"^.ip\""
par SingleCell_Standalone_D2D.ueD2DRx[0].ipv4.natTable config "<config/> at content:1"
par SingleCell_Standalone_D2D.ueD2DRx[0].ipv4.up typename "\"inet.common.MessageDispatcher\""
par SingleCell_Standalone_D2D.ueD2DRx[0].ipv4.up displayStringTextFormat "\"processed %p pk (%l)\""
par SingleCell_Standalone_D2D.ueD2DRx[0].ipv4.up forwardServiceRegistration true
par SingleCell_Standalone_D2D.ueD2DRx[0].ipv4.up forwardProtocolRegistration true
par SingleCell_Standalone_D2D.ueD2DRx[0].ipv4.igmp typename "\"inet.networklayer.ipv4.Igmpv2\""
par SingleCell_Standalone_D2D.ueD2DRx[0].ipv4.igmp interfaceTableModule "\"SingleCell_Standalone_D2D.ueD2DRx[0].interfaceTable\""
par SingleCell_Standalone_D2D.ueD2DRx[0].ipv4.igmp routingTableModule "\"SingleCell_Standalone_D2D.ueD2DRx[0].ipv4.routingTable\""
par SingleCell_Standalone_D2D.ueD2DRx[0].ipv4.igmp crcMode "\"declared\""
attr enum declared,computed
par SingleCell_Standalone_D2D.ueD2DRx[0].ipv4.igmp enabled true
par SingleCell_Standalone_D2D.ueD2DRx[0].ipv4.igmp robustnessVariable 2
par SingleCell_Standalone_D2D.ueD2DRx[0].ipv4.igmp queryInterval 125s
attr unit s
par SingleCell_Standalone_D2D.ueD2DRx[0].ipv4.igmp queryResponseInterval 10s
attr unit s
par SingleCell_Standalone_D2D.ueD2DRx[0].ipv4.igmp groupMembershipInterval 260s
attr unit s
par SingleCell_Standalone_D2D.ueD2DRx[0].ipv4.igmp otherQuerierPresentInterval 255s
attr unit s
par SingleCell_Standalone_D2D.ueD2DRx[0].ipv4.igmp startupQueryInterval 31.25s
attr unit s
par SingleCell_Standalone_D2D.ueD2DRx[0].ipv4.igmp startupQueryCount 2
par SingleCell_Standalone_D2D.ueD2DRx[0].ipv4.igmp lastMemberQueryInterval 1s
attr unit s
par SingleCell_Standalone_D2D.ueD2DRx[0].ipv4.igmp lastMemberQueryCount 2
par SingleCell_Standalone_D2D.ueD2DRx[0].ipv4.igmp unsolicitedReportInterval 10s
attr unit s
par SingleCell_Standalone_D2D.ueD2DRx[0].ipv4.icmp typename "\"inet.networklayer.ipv4.Icmp\""
par SingleCell_Standalone_D2D.ueD2DRx[0].ipv4.icmp interfaceTableModule "\"SingleCell_Standalone_D2D.ueD2DRx[0].interfaceTable\""
par SingleCell_Standalone_D2D.ueD2DRx[0].ipv4.icmp routingTableModule "\"SingleCell_Standalone_D2D.ueD2DRx[0].ipv4.routingTable\""
par SingleCell_Standalone_D2D.ueD2DRx[0].ipv4.icmp crcMode "\"declared\""
attr enum declared,computed
attr mutable ""
par SingleCell_Standalone_D2D.ueD2DRx[0].ipv4.icmp quoteLength 8B
attr mutable ""
attr unit B
par SingleCell_Standalone_D2D.ueD2DRx[0].ipv4.mp typename "\"inet.common.MessageDispatcher\""
par SingleCell_Standalone_D2D.ueD2DRx[0].ipv4.mp displayStringTextFormat "\"processed %p pk (%l)\""
par SingleCell_Standalone_D2D.ueD2DRx[0].ipv4.mp forwardServiceRegistration true
par SingleCell_Standalone_D2D.ueD2DRx[0].ipv4.mp forwardProtocolRegistration true
par SingleCell_Standalone_D2D.ueD2DRx[0].ipv4.ip typename "\"inet.networklayer.ipv4.Ipv4\""
par SingleCell_Standalone_D2D.ueD2DRx[0].ipv4.ip interfaceTableModule "\"SingleCell_Standalone_D2D.ueD2DRx[0].interfaceTable\""
par SingleCell_Standalone_D2D.ueD2DRx[0].ipv4.ip routingTableModule "\"SingleCell_Standalone_D2D.ueD2DRx[0].ipv4.routingTable\""
par SingleCell_Standalone_D2D.ueD2DRx[0].ipv4.ip arpModule "\"SingleCell_Standalone_D2D.ueD2DRx[0].ipv4.arp\""
par SingleCell_Standalone_D2D.ueD2DRx[0].ipv4.ip icmpModule "\"SingleCell_Standalone_D2D.ueD2DRx[0].ipv4.icmp\""
par SingleCell_Standalone_D2D.ueD2DRx[0].ipv4.ip crcMode "\"declared\""
attr enum declared,computed
par SingleCell_Standalone_D2D.ueD2DRx[0].ipv4.ip timeToLive 32
par SingleCell_Standalone_D2D.ueD2DRx[0].ipv4.ip multicastTimeToLive 32
par SingleCell_Standalone_D2D.ueD2DRx[0].ipv4.ip fragmentTimeout 60s
attr unit s
par SingleCell_Standalone_D2D.ueD2DRx[0].ipv4.ip limitedBroadcast false
par SingleCell_Standalone_D2D.ueD2DRx[0].ipv4.ip directBroadcastInterfaces "\"\""
scalar SingleCell_Standalone_D2D.ueD2DRx[0].ipv4.ip packetDropAddressResolutionFailed:count 0
attr interpolationmode none
attr recordingmode count
attr source packetDropReasonIsAddressResolutionFailed(packetDropped)
attr title "packet drop: address resolution failed, count"
scalar SingleCell_Standalone_D2D.ueD2DRx[0].ipv4.ip packetDropAddressResolutionFailed:sum(packetBytes) 0
attr interpolationmode none
attr recordingmode sum(packetBytes)
attr source packetDropReasonIsAddressResolutionFailed(packetDropped)
attr title "packet drop: address resolution failed, sum(packetBytes)"
scalar SingleCell_Standalone_D2D.ueD2DRx[0].ipv4.ip packetDropHopLimitReached:count 0
attr interpolationmode none
attr recordingmode count
attr source packetDropReasonIsHopLimitReached(packetDropped)
attr title "packet drop: hop limit reached, count"
scalar SingleCell_Standalone_D2D.ueD2DRx[0].ipv4.ip packetDropHopLimitReached:sum(packetBytes) 0
attr interpolationmode none
attr recordingmode sum(packetBytes)
attr source packetDropReasonIsHopLimitReached(packetDropped)
attr title "packet drop: hop limit reached, sum(packetBytes)"
scalar SingleCell_Standalone_D2D.ueD2DRx[0].ipv4.ip packetDropForwardingDisabled:count 0
attr interpolationmode none
attr recordingmode count
attr source packetDropReasonIsForwardingDisabled(packetDropped)
attr title "packet drop: forwarding disabled, count"
scalar SingleCell_Standalone_D2D.ueD2DRx[0].ipv4.ip packetDropForwardingDisabled:sum(packetBytes) 0
attr interpolationmode none
attr recordingmode sum(packetBytes)
attr source packetDropReasonIsForwardingDisabled(packetDropped)
attr title "packet drop: forwarding disabled, sum(packetBytes)"
scalar SingleCell_Standalone_D2D.ueD2DRx[0].ipv4.ip packetDropNoInterfaceFound:count 0
attr interpolationmode none
attr recordingmode count
attr source packetDropReasonIsNoInterfaceFound(packetDropped)
attr title "packet drop: no interface found, count"
scalar SingleCell_Standalone_D2D.ueD2DRx[0].ipv4.ip packetDropNoInterfaceFound:sum(packetBytes) 0
attr interpolationmode none
attr recordingmode sum(packetBytes)
attr source packetDropReasonIsNoInterfaceFound(packetDropped)
attr title "packet drop: no interface found, sum(packetBytes)"
scalar SingleCell_Standalone_D2D.ueD2DRx[0].ipv4.ip packetDropNoRouteFound:count 0
attr interpolationmode none
attr recordingmode count
attr source packetDropReasonIsNoRouteFound(packetDropped)
attr title "packet drop: no route found, count"
scalar SingleCell_Standalone_D2D.ueD2DRx[0].ipv4.ip packetDropNoRouteFound:sum(packetBytes) 0
attr interpolationmode none
attr recordingmode sum(packetBytes)
attr source packetDropReasonIsNoRouteFound(packetDropped)
attr title "packet drop: no route found, sum(packetBytes)"
scalar SingleCell_Standalone_D2D.ueD2DRx[0].ipv4.ip packetDropUndefined:count 0
attr interpolationmode none
attr recordingmode count
attr source packetDropReasonIsUndefined(packetDropped)
attr title "packet drop: undefined, count"
scalar SingleCell_Standalone_D2D.ueD2DRx[0].ipv4.ip packetDropUndefined:sum(packetBytes) 0
attr interpolationmode none
attr recordingmode sum(packetBytes)
attr source packetDropReasonIsUndefined(packetDropped)
attr title "packet drop: undefined, sum(packetBytes)"
par SingleCell_Standalone_D2D.ueD2DRx[0].ipv4.arp typename "\"inet.networklayer.arp.ipv4.Arp\""
par SingleCell_Standalone_D2D.ueD2DRx[0].ipv4.arp interfaceTableModule "\"SingleCell_Standalone_D2D.ueD2DRx[0].interfaceTable\""
par SingleCell_Standalone_D2D.ueD2DRx[0].ipv4.arp routingTableModule "\"SingleCell_Standalone_D2D.ueD2DRx[0].ipv4.routingTable\""
par SingleCell_Standalone_D2D.ueD2DRx[0].ipv4.arp retryTimeout 1s
attr unit s
par SingleCell_Standalone_D2D.ueD2DRx[0].ipv4.arp retryCount 3
par SingleCell_Standalone_D2D.ueD2DRx[0].ipv4.arp cacheTimeout 120s
attr unit s
par SingleCell_Standalone_D2D.ueD2DRx[0].ipv4.arp proxyArpInterfaces "\"*\""
scalar SingleCell_Standalone_D2D.ueD2DRx[0].ipv4.arp arpResolutionFailed:count 0
attr recordingmode count
attr title "ARP failed resolutions, count"
scalar SingleCell_Standalone_D2D.ueD2DRx[0].ipv4.arp arpResolutionCompleted:count 0
attr recordingmode count
attr title "ARP completed resolutions, count"
scalar SingleCell_Standalone_D2D.ueD2DRx[0].ipv4.arp arpResolutionInitiated:count 0
attr recordingmode count
attr title "ARP initiated resolutions, count"
scalar SingleCell_Standalone_D2D.ueD2DRx[0].ipv4.arp arpReplySent:count 0
attr recordingmode count
attr source arpReplySent
attr title "ARP replies sent, count"
scalar SingleCell_Standalone_D2D.ueD2DRx[0].ipv4.arp arpReplySent:sum(packetBytes) 0
attr recordingmode sum(packetBytes)
attr source arpReplySent
attr title "ARP replies sent, sum(packetBytes)"
scalar SingleCell_Standalone_D2D.ueD2DRx[0].ipv4.arp arpRequestSent:count 0
attr recordingmode count
attr source arpRequestSent
attr title "ARP request sent, count"
scalar SingleCell_Standalone_D2D.ueD2DRx[0].ipv4.arp arpRequestSent:sum(packetBytes) 0
attr recordingmode sum(packetBytes)
attr source arpRequestSent
attr title "ARP request sent, sum(packetBytes)"
par SingleCell_Standalone_D2D.ueD2DRx[0].ipv4.lp typename "\"inet.common.MessageDispatcher\""
par SingleCell_Standalone_D2D.ueD2DRx[0].ipv4.lp displayStringTextFormat "\"processed %p pk (%l)\""
par SingleCell_Standalone_D2D.ueD2DRx[0].ipv4.lp forwardServiceRegistration true
par SingleCell_Standalone_D2D.ueD2DRx[0].ipv4.lp forwardProtocolRegistration true
par SingleCell_Standalone_D2D.ueD2DRx[0].ipv4 typename "\"inet.networklayer.ipv4.Ipv4NetworkLayer\""
par SingleCell_Standalone_D2D.ueD2DRx[0].ipv4 forwarding false
par SingleCell_Standalone_D2D.ueD2DRx[0].ipv4 multicastForwarding false
par SingleCell_Standalone_D2D.ueD2DRx[0].ipv4 interfaceTableModule "\"SingleCell_Standalone_D2D.ueD2DRx[0].interfaceTable\""
par SingleCell_Standalone_D2D.ueD2DRx[0].ipv4 displayStringTextFormat "\"%i\""
par SingleCell_Standalone_D2D.ueD2DRx[0].udp typename "\"inet.transportlayer.udp.Udp\""
par SingleCell_Standalone_D2D.ueD2DRx[0].udp interfaceTableModule "\"SingleCell_Standalone_D2D.ueD2DRx[0].interfaceTable\""
par SingleCell_Standalone_D2D.ueD2DRx[0].udp icmpModule "\"^.ipv4.icmp\""
par SingleCell_Standalone_D2D.ueD2DRx[0].udp icmpv6Module "\"^.ipv6.icmpv6\""
par SingleCell_Standalone_D2D.ueD2DRx[0].udp crcMode "\"declared\""
attr enum disabled,declared,computed
par SingleCell_Standalone_D2D.ueD2DRx[0].udp defaultMulticastLoop true
scalar SingleCell_Standalone_D2D.ueD2DRx[0].udp packetReceived:count 0
attr interpolationmode none
attr recordingmode count
attr source packetReceived
attr title "packets received, count"
scalar SingleCell_Standalone_D2D.ueD2DRx[0].udp packetReceived:sum(packetBytes) 0
attr interpolationmode none
attr recordingmode sum(packetBytes)
attr source packetReceived
attr title "packets received, sum(packetBytes)"
scalar SingleCell_Standalone_D2D.ueD2DRx[0].udp packetSent:count 0
attr interpolationmode none
attr recordingmode count
attr source packetSent
attr title "packets sent, count"
scalar SingleCell_Standalone_D2D.ueD2DRx[0].udp packetSent:sum(packetBytes) 0
attr interpolationmode none
attr recordingmode sum(packetBytes)
attr source packetSent
attr title "packets sent, sum(packetBytes)"
scalar SingleCell_Standalone_D2D.ueD2DRx[0].udp passedUpPk:count 0
attr interpolationmode none
attr recordingmode count
attr source packetSentToUpper
attr title "packets passed up, count"
scalar SingleCell_Standalone_D2D.ueD2DRx[0].udp droppedPkWrongPort:count 0
attr interpolationmode none
attr recordingmode count
attr source packetDropReasonIsNoPortFound(packetDropped)
attr title "packets dropped (wrong port), count"
scalar SingleCell_Standalone_D2D.ueD2DRx[0].udp droppedPkBadChecksum:count 0
attr interpolationmode none
attr recordingmode count
attr source packetDropReasonIsIncorrectlyReceived(packetDropped)
attr title "packets dropped (checksum error), count"
par SingleCell_Standalone_D2D.ueD2DRx[0].tcp typename "\"inet.transportlayer.tcp.Tcp\""
par SingleCell_Standalone_D2D.ueD2DRx[0].tcp crcMode "\"declared\""
attr enum declared,computed
par SingleCell_Standalone_D2D.ueD2DRx[0].tcp advertisedWindow 7504
par SingleCell_Standalone_D2D.ueD2DRx[0].tcp delayedAcksEnabled false
par SingleCell_Standalone_D2D.ueD2DRx[0].tcp nagleEnabled true
par SingleCell_Standalone_D2D.ueD2DRx[0].tcp limitedTransmitEnabled false
par SingleCell_Standalone_D2D.ueD2DRx[0].tcp increasedIWEnabled false
par SingleCell_Standalone_D2D.ueD2DRx[0].tcp sackSupport false
par SingleCell_Standalone_D2D.ueD2DRx[0].tcp windowScalingSupport false
par SingleCell_Standalone_D2D.ueD2DRx[0].tcp windowScalingFactor -1
par SingleCell_Standalone_D2D.ueD2DRx[0].tcp timestampSupport false
par SingleCell_Standalone_D2D.ueD2DRx[0].tcp mss 536
par SingleCell_Standalone_D2D.ueD2DRx[0].tcp msl 120s
attr unit s
par SingleCell_Standalone_D2D.ueD2DRx[0].tcp tcpAlgorithmClass "\"TcpReno\""
attr enum TcpVegas,TcpWestwood,TcpNewReno,TcpReno,TcpTahoe,TcpNoCongestionControl
par SingleCell_Standalone_D2D.ueD2DRx[0].tcp useDataNotification false
par SingleCell_Standalone_D2D.ueD2DRx[0].tcp dupthresh 3
par SingleCell_Standalone_D2D.ueD2DRx[0].tcp initialSsthresh 4294967295
par SingleCell_Standalone_D2D.ueD2DRx[0].tcp stopOperationExtraTime 0s
attr unit s
par SingleCell_Standalone_D2D.ueD2DRx[0].tcp stopOperationTimeout 2s
attr unit s
par SingleCell_Standalone_D2D.ueD2DRx[0].tcp ecnWillingness false
par SingleCell_Standalone_D2D.ueD2DRx[0].tcp dctcpGamma 0.0625
par SingleCell_Standalone_D2D.ueD2DRx[0].at typename "\"inet.common.MessageDispatcher\""
par SingleCell_Standalone_D2D.ueD2DRx[0].at displayStringTextFormat "\"processed %p pk (%l)\""
par SingleCell_Standalone_D2D.ueD2DRx[0].at forwardServiceRegistration true
par SingleCell_Standalone_D2D.ueD2DRx[0].at forwardProtocolRegistration true
par SingleCell_Standalone_D2D.ueD2DRx[0].tn typename "\"inet.common.MessageDispatcher\""
par SingleCell_Standalone_D2D.ueD2DRx[0].tn displayStringTextFormat "\"processed %p pk (%l)\""
par SingleCell_Standalone_D2D.ueD2DRx[0].tn forwardServiceRegistration true
par SingleCell_Standalone_D2D.ueD2DRx[0].tn forwardProtocolRegistration true
par SingleCell_Standalone_D2D.ueD2DRx[0].nl typename "\"inet.common.MessageDispatcher\""
par SingleCell_Standalone_D2D.ueD2DRx[0].nl displayStringTextFormat "\"processed %p pk (%l)\""
par SingleCell_Standalone_D2D.ueD2DRx[0].nl forwardServiceRegistration true
par SingleCell_Standalone_D2D.ueD2DRx[0].nl forwardProtocolRegistration true
par SingleCell_Standalone_D2D.ueD2DRx[0] typename "\"simu5g.nodes.NR.NRUe\""
par SingleCell_Standalone_D2D.ueD2DRx[0] numApps 0
par SingleCell_Standalone_D2D.ueD2DRx[0] hasUdp true
par SingleCell_Standalone_D2D.ueD2DRx[0] hasTcp true
par SingleCell_Standalone_D2D.ueD2DRx[0] hasSctp false
par SingleCell_Standalone_D2D.ueD2DRx[0] nodeType "\"UE\""
par SingleCell_Standalone_D2D.ueD2DRx[0] masterId 0
attr mutable ""
par SingleCell_Standalone_D2D.ueD2DRx[0] macNodeId 1026
attr mutable ""
par SingleCell_Standalone_D2D.ueD2DRx[0] macCellId 0
attr mutable ""
par SingleCell_Standalone_D2D.ueD2DRx[0] nicType "\"NRNicUe\""
par SingleCell_Standalone_D2D.ueD2DRx[0] hasIpv4 true
par SingleCell_Standalone_D2D.ueD2DRx[0] hasIpv6 false
par SingleCell_Standalone_D2D.ueD2DRx[0] numEthInterfaces 0
par SingleCell_Standalone_D2D.ueD2DRx[0] extHostAddress "\"\""
par SingleCell_Standalone_D2D.ueD2DRx[0] numLoInterfaces 1
par SingleCell_Standalone_D2D.ueD2DRx[0] numPcapRecorders 0
par SingleCell_Standalone_D2D.ueD2DRx[0] hasRNISupport false
par SingleCell_Standalone_D2D.ueD2DRx[0] nrMasterId 1
attr mutable ""
par SingleCell_Standalone_D2D.ueD2DRx[0] nrMacNodeId 2050
attr mutable ""
par SingleCell_Standalone_D2D.ueD2DRx[0] nrMacCellId 1
attr mutable ""
par SingleCell_Standalone_D2D typename "\"simu5g.simulations.NR.networks.SingleCell_Standalone_D2D\""
par SingleCell_Standalone_D2D numUeCell 0
par SingleCell_Standalone_D2D numUeD2DTx 1
par SingleCell_Standalone_D2D numUeD2DRx 1
par SingleCell_Standalone_D2D numBgCells 0

