version 3
run SinglePair-modeSwitching-0-20230302-20:13:13-298927
attr configname SinglePair-modeSwitching
attr datetime 20230302-20:13:13
attr datetimef 20230302-201313
attr experiment SinglePair-modeSwitching
attr inifile omnetpp.ini
attr iterationvars ""
attr iterationvarsd ""
attr iterationvarsf ""
attr measurement ""
attr network simu5g.simulations.NR.networks.SingleCell_Standalone_D2D
attr processid 298927
attr repetition 0
attr replication #0
attr resultdir results
attr runnumber 0
attr seedset 0
config image-path ../../../images:../../../../inet4.4/images:../../../../veins-veins-5.2/subprojects/veins_inet/images:../../../../veins-veins-5.2/images
config network simu5g.simulations.NR.networks.SingleCell_Standalone_D2D
config sim-time-limit 50s
config warmup-period 0s
config **.vector-recording true
config **.cellularNic.channelModel[0].fading false
config **.cellularNic.channelModel[0].shadowing false
config *.gnb.mobility.initialX 300m
config *.gnb.mobility.initialY 300m
config *.numUeCell 0
config *.numUeD2DTx 1
config *.numUeD2DRx 1
config *.ue*[0].macCellId 0
config *.ue*[0].masterId 0
config *.ue*[0].nrMacCellId 1
config *.ue*[0].nrMasterId 1
config *.ue*[0].mobility.initFromDisplayString false
config *.ue*[0].mobility.typename LinearMobility
config *.ue*[0].mobility.speed 10mps
config *.ueD2DTx[0].mobility.initialX 290m
config *.ueD2DTx[0].mobility.initialY 400m
config *.ueD2DTx[0].mobility.constraintAreaMinX 200m
config *.ueD2DTx[0].mobility.constraintAreaMaxX 290m
config *.ueD2DTx[0].mobility.initialMovementHeading 180deg
config *.ueD2DRx[0].mobility.initialX 310m
config *.ueD2DRx[0].mobility.initialY 400m
config *.ueD2DRx[0].mobility.constraintAreaMinX 310m
config *.ueD2DRx[0].mobility.constraintAreaMaxX 400m
config *.ueD2DRx[0].mobility.initialMovementHeading 0deg
config *.ueD2D*[*].cellularNic.d2dInitialMode true
config **.usePreconfiguredTxParams false
config **.gnb.cellularNic.phy.enableD2DCqiReporting true
config **.amcMode "\"D2D\""
config *.gnb.cellularNic.d2dModeSelectionType "\"D2DModeSelectionBestCqi\""
config image-path ../../images
config sim-time-limit 20s
config warmup-period 0s
config repeat 3
config **.routingRecorder.enabled false
config output-scalar-file results/SinglePair-modeSwitching/0.sca
config output-vector-file results/SinglePair-modeSwitching/0.vec
config seed-set 0
config **.vector-recording false
config **.mobility.constraintAreaMaxX 1000m
config **.mobility.constraintAreaMaxY 1000m
config **.mobility.constraintAreaMinX 0m
config **.mobility.constraintAreaMinY 0m
config **.mobility.constraintAreaMinZ 0m
config **.mobility.constraintAreaMaxZ 0m
config **.mobility.initFromDisplayString false
config **.numBands 50
config **.ueTxPower 26
config **.eNodeBTxPower 40
config **.targetBler 0.01
config **.blerShift 5
config *.configurator.config "xmldoc(\"./demo.xml\")"

vector 0 SingleCell_Standalone_D2D.server.ppp[0].ppp transmissionState:vector ETV
attr interpolationmode sample-hold
attr recordingmode vector
attr source transmissionStateChanged
attr title "tx state"
vector 1 SingleCell_Standalone_D2D.server.udp passedUpPk:vector(count) ETV
attr interpolationmode none
attr recordingmode vector(count)
attr source packetSentToUpper
attr title "packets passed up, count"
vector 2 SingleCell_Standalone_D2D.server.udp droppedPkWrongPort:vector(count) ETV
attr interpolationmode none
attr recordingmode vector(count)
attr source packetDropReasonIsNoPortFound(packetDropped)
attr title "packets dropped (wrong port), count"
vector 3 SingleCell_Standalone_D2D.server.udp droppedPkBadChecksum:vector(count) ETV
attr interpolationmode none
attr recordingmode vector(count)
attr source packetDropReasonIsIncorrectlyReceived(packetDropped)
attr title "packets dropped (checksum error), count"
vector 4 SingleCell_Standalone_D2D.router.ppp[0].ppp transmissionState:vector ETV
attr interpolationmode sample-hold
attr recordingmode vector
attr source transmissionStateChanged
attr title "tx state"
vector 5 SingleCell_Standalone_D2D.router.ppp[1].ppp transmissionState:vector ETV
attr interpolationmode sample-hold
attr recordingmode vector
attr source transmissionStateChanged
attr title "tx state"
vector 6 SingleCell_Standalone_D2D.upf.ppp[0].ppp transmissionState:vector ETV
attr interpolationmode sample-hold
attr recordingmode vector
attr source transmissionStateChanged
attr title "tx state"
vector 7 SingleCell_Standalone_D2D.upf.pppIf.ppp transmissionState:vector ETV
attr interpolationmode sample-hold
attr recordingmode vector
attr source transmissionStateChanged
attr title "tx state"
vector 8 SingleCell_Standalone_D2D.upf.udp passedUpPk:vector(count) ETV
attr interpolationmode none
attr recordingmode vector(count)
attr source packetSentToUpper
attr title "packets passed up, count"
vector 9 SingleCell_Standalone_D2D.upf.udp droppedPkWrongPort:vector(count) ETV
attr interpolationmode none
attr recordingmode vector(count)
attr source packetDropReasonIsNoPortFound(packetDropped)
attr title "packets dropped (wrong port), count"
vector 10 SingleCell_Standalone_D2D.upf.udp droppedPkBadChecksum:vector(count) ETV
attr interpolationmode none
attr recordingmode vector(count)
attr source packetDropReasonIsIncorrectlyReceived(packetDropped)
attr title "packets dropped (checksum error), count"
vector 11 SingleCell_Standalone_D2D.iUpf.ppp[0].ppp transmissionState:vector ETV
attr interpolationmode sample-hold
attr recordingmode vector
attr source transmissionStateChanged
attr title "tx state"
vector 12 SingleCell_Standalone_D2D.iUpf.ppp[1].ppp transmissionState:vector ETV
attr interpolationmode sample-hold
attr recordingmode vector
attr source transmissionStateChanged
attr title "tx state"
vector 13 SingleCell_Standalone_D2D.iUpf.pppIf.ppp transmissionState:vector ETV
attr interpolationmode sample-hold
attr recordingmode vector
attr source transmissionStateChanged
attr title "tx state"
vector 14 SingleCell_Standalone_D2D.iUpf.udp passedUpPk:vector(count) ETV
attr interpolationmode none
attr recordingmode vector(count)
attr source packetSentToUpper
attr title "packets passed up, count"
vector 15 SingleCell_Standalone_D2D.iUpf.udp droppedPkWrongPort:vector(count) ETV
attr interpolationmode none
attr recordingmode vector(count)
attr source packetDropReasonIsNoPortFound(packetDropped)
attr title "packets dropped (wrong port), count"
vector 16 SingleCell_Standalone_D2D.iUpf.udp droppedPkBadChecksum:vector(count) ETV
attr interpolationmode none
attr recordingmode vector(count)
attr source packetDropReasonIsIncorrectlyReceived(packetDropped)
attr title "packets dropped (checksum error), count"
vector 17 SingleCell_Standalone_D2D.gnb.pppIf.ppp transmissionState:vector ETV
attr interpolationmode sample-hold
attr recordingmode vector
attr source transmissionStateChanged
attr title "tx state"
vector 18 SingleCell_Standalone_D2D.gnb.pppMEHostIf.ppp transmissionState:vector ETV
attr interpolationmode sample-hold
attr recordingmode vector
attr source transmissionStateChanged
attr title "tx state"
vector 19 SingleCell_Standalone_D2D.gnb.udp passedUpPk:vector(count) ETV
attr interpolationmode none
attr recordingmode vector(count)
attr source packetSentToUpper
attr title "packets passed up, count"
vector 20 SingleCell_Standalone_D2D.gnb.udp droppedPkWrongPort:vector(count) ETV
attr interpolationmode none
attr recordingmode vector(count)
attr source packetDropReasonIsNoPortFound(packetDropped)
attr title "packets dropped (wrong port), count"
vector 21 SingleCell_Standalone_D2D.gnb.udp droppedPkBadChecksum:vector(count) ETV
attr interpolationmode none
attr recordingmode vector(count)
attr source packetDropReasonIsIncorrectlyReceived(packetDropped)
attr title "packets dropped (checksum error), count"
vector 22 SingleCell_Standalone_D2D.ueD2DTx[0].udp passedUpPk:vector(count) ETV
attr interpolationmode none
attr recordingmode vector(count)
attr source packetSentToUpper
attr title "packets passed up, count"
vector 23 SingleCell_Standalone_D2D.ueD2DTx[0].udp droppedPkWrongPort:vector(count) ETV
attr interpolationmode none
attr recordingmode vector(count)
attr source packetDropReasonIsNoPortFound(packetDropped)
attr title "packets dropped (wrong port), count"
vector 24 SingleCell_Standalone_D2D.ueD2DTx[0].udp droppedPkBadChecksum:vector(count) ETV
attr interpolationmode none
attr recordingmode vector(count)
attr source packetDropReasonIsIncorrectlyReceived(packetDropped)
attr title "packets dropped (checksum error), count"
vector 25 SingleCell_Standalone_D2D.ueD2DRx[0].udp passedUpPk:vector(count) ETV
attr interpolationmode none
attr recordingmode vector(count)
attr source packetSentToUpper
attr title "packets passed up, count"
vector 26 SingleCell_Standalone_D2D.ueD2DRx[0].udp droppedPkWrongPort:vector(count) ETV
attr interpolationmode none
attr recordingmode vector(count)
attr source packetDropReasonIsNoPortFound(packetDropped)
attr title "packets dropped (wrong port), count"
vector 27 SingleCell_Standalone_D2D.ueD2DRx[0].udp droppedPkBadChecksum:vector(count) ETV
attr interpolationmode none
attr recordingmode vector(count)
attr source packetDropReasonIsIncorrectlyReceived(packetDropped)
attr title "packets dropped (checksum error), count"
vector 28 SingleCell_Standalone_D2D.ueD2DTx[0].cellularNic.phy servingCell:vector ETV
attr recordingmode vector
attr source servingCell
attr title "ID of the serving eNodeB for the UE"
attr unit ""
vector 29 SingleCell_Standalone_D2D.ueD2DTx[0].cellularNic.nrPhy servingCell:vector ETV
attr recordingmode vector
attr source servingCell
attr title "ID of the serving eNodeB for the UE"
attr unit ""
vector 30 SingleCell_Standalone_D2D.ueD2DRx[0].cellularNic.phy servingCell:vector ETV
attr recordingmode vector
attr source servingCell
attr title "ID of the serving eNodeB for the UE"
attr unit ""
vector 31 SingleCell_Standalone_D2D.ueD2DRx[0].cellularNic.nrPhy servingCell:vector ETV
attr recordingmode vector
attr source servingCell
attr title "ID of the serving eNodeB for the UE"
attr unit ""
vector 32 SingleCell_Standalone_D2D.gnb.cellularNic.mac avgServedBlocksUl:vector ETV
attr recordingmode vector
attr source avgServedBlocksUl
attr title "Avg Served Blocks Ul"
attr unit blocks
vector 33 SingleCell_Standalone_D2D.gnb.cellularNic.mac avgServedBlocksDl:vector ETV
attr recordingmode vector
attr source avgServedBlocksDl
attr title "Avg Served Blocks Dl"
attr unit blocks
vector 34 SingleCell_Standalone_D2D.ueD2DTx[0].cellularNic.nrChannelModel[0] measuredSinrUl:vector ETV
attr recordingmode vector
attr source measuredSinrUl
attr title "SINR measured at feedback computation, UL"
attr unit dB
vector 35 SingleCell_Standalone_D2D.ueD2DTx[0].cellularNic.nrChannelModel[0] measuredSinrDl:vector ETV
attr recordingmode vector
attr source measuredSinrDl
attr title "SINR measured at feedback computation, DL"
attr unit dB
vector 36 SingleCell_Standalone_D2D.gnb.cellularNic.mac receivedPacketFromLowerLayer:vector(packetBytes) ETV
attr interpolationmode none
attr recordingmode vector(packetBytes)
attr source receivedPacketFromLowerLayer
vector 37 SingleCell_Standalone_D2D.ueD2DRx[0].cellularNic.nrChannelModel[0] measuredSinrUl:vector ETV
attr recordingmode vector
attr source measuredSinrUl
attr title "SINR measured at feedback computation, UL"
attr unit dB
vector 38 SingleCell_Standalone_D2D.ueD2DRx[0].cellularNic.nrChannelModel[0] measuredSinrDl:vector ETV
attr recordingmode vector
attr source measuredSinrDl
attr title "SINR measured at feedback computation, DL"
attr unit dB
32	10	0.001	0
32	16	0.002	0
32	26	0.003	0
32	32	0.004	0
32	38	0.005	0
32	46	0.006	0
32	54	0.007	0
32	60	0.008	0
32	70	0.009	0
32	76	0.01	0
32	82	0.011	0
32	90	0.012	0
32	98	0.013	0
32	104	0.014	0
32	114	0.015	0
32	120	0.016	0
32	126	0.017	0
32	134	0.018	0
32	142	0.019	0
32	148	0.02	0
32	158	0.021	0
32	164	0.022	0
32	170	0.023	0
32	178	0.024	0
32	186	0.025	0
32	192	0.026	0
32	202	0.027	0
32	208	0.028	0
32	214	0.029	0
32	222	0.03	0
32	230	0.031	0
32	236	0.032	0
32	246	0.033	0
32	252	0.034	0
32	258	0.035	0
32	266	0.036	0
32	274	0.037	0
32	280	0.038	0
32	290	0.039	0
32	296	0.04	0
32	302	0.041	0
32	310	0.042	0
32	318	0.043	0
32	324	0.044	0
32	334	0.045	0
32	340	0.046	0
32	346	0.047	0
32	354	0.048	0
32	362	0.049	0
32	369	0.05	0
32	379	0.051	0
32	385	0.052	0
32	391	0.053	0
32	399	0.054	0
32	407	0.055	0
32	413	0.056	0
32	423	0.057	0
32	429	0.058	0
32	435	0.059	0
32	443	0.06	0
32	451	0.061	0
32	457	0.062	0
32	467	0.063	0
32	473	0.064	0
32	479	0.065	0
32	487	0.066	0
32	495	0.067	0
32	501	0.068	0
32	511	0.069	0
32	517	0.07	0
32	523	0.071	0
32	531	0.072	0
32	539	0.073	0
32	545	0.074	0
32	555	0.075	0
32	561	0.076	0
32	567	0.077	0
32	575	0.078	0
32	583	0.079	0
32	589	0.08	0
32	599	0.081	0
32	605	0.082	0
32	611	0.083	0
32	619	0.084	0
32	627	0.085	0
32	633	0.086	0
32	643	0.087	0
32	649	0.088	0
32	655	0.089	0
32	663	0.09	0
32	671	0.091	0
32	677	0.092	0
32	687	0.093	0
32	693	0.094	0
32	699	0.095	0
32	707	0.096	0
32	715	0.097	0
32	721	0.098	0
32	731	0.099	0
32	739	0.1	0
32	745	0.101	0
32	753	0.102	0
32	761	0.103	0
32	767	0.104	0
32	777	0.105	0
32	783	0.106	0
32	789	0.107	0
32	797	0.108	0
32	805	0.109	0
32	811	0.11	0
32	821	0.111	0
32	827	0.112	0
32	833	0.113	0
32	841	0.114	0
32	849	0.115	0
32	855	0.116	0
32	865	0.117	0
32	871	0.118	0
32	877	0.119	0
32	885	0.12	0
32	893	0.121	0
32	899	0.122	0
32	909	0.123	0
32	915	0.124	0
32	921	0.125	0
32	929	0.126	0
32	937	0.127	0
32	943	0.128	0
32	953	0.129	0
32	959	0.13	0
32	965	0.131	0
32	973	0.132	0
32	981	0.133	0
32	987	0.134	0
32	997	0.135	0
32	1003	0.136	0
32	1009	0.137	0
32	1017	0.138	0
32	1025	0.139	0
32	1031	0.14	0
32	1041	0.141	0
32	1047	0.142	0
32	1053	0.143	0
32	1061	0.144	0
32	1069	0.145	0
32	1075	0.146	0
32	1085	0.147	0
32	1091	0.148	0
32	1097	0.149	0
32	1105	0.15	0
32	1113	0.151	0
32	1119	0.152	0
32	1129	0.153	0
32	1135	0.154	0
32	1141	0.155	0
32	1149	0.156	0
32	1157	0.157	0
32	1163	0.158	0
32	1173	0.159	0
32	1179	0.16	0
32	1185	0.161	0
32	1193	0.162	0
32	1201	0.163	0
32	1207	0.164	0
32	1217	0.165	0
32	1223	0.166	0
32	1229	0.167	0
32	1237	0.168	0
32	1245	0.169	0
32	1251	0.17	0
32	1261	0.171	0
32	1267	0.172	0
32	1273	0.173	0
32	1281	0.174	0
32	1289	0.175	0
32	1295	0.176	0
32	1305	0.177	0
32	1311	0.178	0
32	1317	0.179	0
32	1325	0.18	0
32	1333	0.181	0
32	1339	0.182	0
32	1349	0.183	0
32	1355	0.184	0
32	1361	0.185	0
32	1369	0.186	0
32	1377	0.187	0
32	1383	0.188	0
32	1393	0.189	0
32	1399	0.19	0
32	1405	0.191	0
32	1413	0.192	0
32	1421	0.193	0
32	1427	0.194	0
32	1437	0.195	0
32	1443	0.196	0
32	1449	0.197	0
32	1457	0.198	0
32	1465	0.199	0
32	1473	0.2	0
32	1483	0.201	0
32	1489	0.202	0
32	1495	0.203	0
32	1503	0.204	0
32	1511	0.205	0
32	1517	0.206	0
32	1527	0.207	0
32	1533	0.208	0
32	1539	0.209	0
32	1547	0.21	0
32	1555	0.211	0
32	1561	0.212	0
32	1571	0.213	0
32	1577	0.214	0
32	1583	0.215	0
32	1591	0.216	0
32	1599	0.217	0
32	1605	0.218	0
32	1615	0.219	0
32	1621	0.22	0
32	1627	0.221	0
32	1635	0.222	0
32	1643	0.223	0
32	1649	0.224	0
32	1659	0.225	0
32	1665	0.226	0
32	1671	0.227	0
32	1679	0.228	0
32	1687	0.229	0
32	1693	0.23	0
32	1703	0.231	0
32	1709	0.232	0
32	1715	0.233	0
32	1723	0.234	0
32	1731	0.235	0
32	1737	0.236	0
32	1747	0.237	0
32	1753	0.238	0
32	1759	0.239	0
32	1767	0.24	0
32	1775	0.241	0
32	1781	0.242	0
32	1791	0.243	0
32	1797	0.244	0
32	1803	0.245	0
32	1811	0.246	0
32	1819	0.247	0
32	1825	0.248	0
32	1835	0.249	0
32	1841	0.25	0
32	1847	0.251	0
32	1855	0.252	0
32	1863	0.253	0
32	1869	0.254	0
32	1879	0.255	0
32	1885	0.256	0
32	1891	0.257	0
32	1899	0.258	0
32	1907	0.259	0
32	1913	0.26	0
32	1923	0.261	0
32	1929	0.262	0
32	1935	0.263	0
32	1943	0.264	0
32	1951	0.265	0
32	1957	0.266	0
32	1967	0.267	0
32	1973	0.268	0
32	1979	0.269	0
32	1987	0.27	0
32	1995	0.271	0
32	2001	0.272	0
32	2011	0.273	0
32	2017	0.274	0
32	2023	0.275	0
32	2031	0.276	0
32	2039	0.277	0
32	2045	0.278	0
32	2055	0.279	0
32	2061	0.28	0
32	2067	0.281	0
32	2075	0.282	0
32	2083	0.283	0
32	2089	0.284	0
32	2099	0.285	0
32	2105	0.286	0
32	2111	0.287	0
32	2119	0.288	0
32	2127	0.289	0
32	2133	0.29	0
32	2143	0.291	0
32	2149	0.292	0
32	2155	0.293	0
32	2163	0.294	0
32	2171	0.295	0
32	2177	0.296	0
32	2187	0.297	0
32	2193	0.298	0
32	2199	0.299	0
32	2209	0.3	0
32	2217	0.301	0
32	2223	0.302	0
32	2233	0.303	0
32	2239	0.304	0
32	2245	0.305	0
32	2253	0.306	0
32	2261	0.307	0
32	2267	0.308	0
32	2277	0.309	0
32	2283	0.31	0
32	2289	0.311	0
32	2297	0.312	0
32	2305	0.313	0
32	2311	0.314	0
32	2321	0.315	0
32	2327	0.316	0
32	2333	0.317	0
32	2341	0.318	0
32	2349	0.319	0
32	2355	0.32	0
32	2365	0.321	0
32	2371	0.322	0
32	2377	0.323	0
32	2385	0.324	0
32	2393	0.325	0
32	2399	0.326	0
32	2409	0.327	0
32	2415	0.328	0
32	2421	0.329	0
32	2429	0.33	0
32	2437	0.331	0
32	2443	0.332	0
32	2453	0.333	0
32	2459	0.334	0
32	2465	0.335	0
32	2473	0.336	0
32	2481	0.337	0
32	2487	0.338	0
32	2497	0.339	0
32	2503	0.34	0
32	2509	0.341	0
32	2517	0.342	0
32	2525	0.343	0
32	2531	0.344	0
32	2541	0.345	0
32	2547	0.346	0
32	2553	0.347	0
32	2561	0.348	0
32	2569	0.349	0
32	2575	0.35	0
32	2585	0.351	0
32	2591	0.352	0
32	2597	0.353	0
32	2605	0.354	0
32	2613	0.355	0
32	2619	0.356	0
32	2629	0.357	0
32	2635	0.358	0
32	2641	0.359	0
32	2649	0.36	0
32	2657	0.361	0
32	2663	0.362	0
32	2673	0.363	0
32	2679	0.364	0
32	2685	0.365	0
32	2693	0.366	0
32	2701	0.367	0
32	2707	0.368	0
32	2717	0.369	0
32	2723	0.37	0
32	2729	0.371	0
32	2737	0.372	0
32	2745	0.373	0
32	2751	0.374	0
32	2761	0.375	0
32	2767	0.376	0
32	2773	0.377	0
32	2781	0.378	0
32	2789	0.379	0
32	2795	0.38	0
32	2805	0.381	0
32	2811	0.382	0
32	2817	0.383	0
32	2825	0.384	0
32	2833	0.385	0
32	2839	0.386	0
32	2849	0.387	0
32	2855	0.388	0
32	2861	0.389	0
32	2869	0.39	0
32	2877	0.391	0
32	2883	0.392	0
32	2893	0.393	0
32	2899	0.394	0
32	2905	0.395	0
32	2913	0.396	0
32	2921	0.397	0
32	2927	0.398	0
32	2937	0.399	0
32	2945	0.4	0
32	2951	0.401	0
32	2959	0.402	0
32	2967	0.403	0
32	2973	0.404	0
32	2983	0.405	0
32	2989	0.406	0
32	2995	0.407	0
32	3003	0.408	0
32	3011	0.409	0
32	3017	0.41	0
32	3027	0.411	0
32	3033	0.412	0
32	3039	0.413	0
32	3047	0.414	0
32	3055	0.415	0
32	3061	0.416	0
32	3071	0.417	0
32	3077	0.418	0
32	3083	0.419	0
32	3091	0.42	0
32	3099	0.421	0
32	3105	0.422	0
32	3115	0.423	0
32	3121	0.424	0
32	3127	0.425	0
32	3135	0.426	0
32	3143	0.427	0
32	3149	0.428	0
32	3159	0.429	0
32	3165	0.43	0
32	3171	0.431	0
32	3179	0.432	0
32	3187	0.433	0
32	3193	0.434	0
32	3203	0.435	0
32	3209	0.436	0
32	3215	0.437	0
32	3223	0.438	0
32	3231	0.439	0
32	3237	0.44	0
32	3247	0.441	0
32	3253	0.442	0
32	3259	0.443	0
32	3267	0.444	0
32	3275	0.445	0
32	3281	0.446	0
32	3291	0.447	0
32	3297	0.448	0
32	3303	0.449	0
32	3311	0.45	0
32	3319	0.451	0
32	3325	0.452	0
32	3335	0.453	0
32	3341	0.454	0
32	3347	0.455	0
32	3355	0.456	0
32	3363	0.457	0
32	3369	0.458	0
32	3379	0.459	0
32	3385	0.46	0
32	3391	0.461	0
32	3399	0.462	0
32	3407	0.463	0
32	3413	0.464	0
32	3423	0.465	0
32	3429	0.466	0
32	3435	0.467	0
32	3443	0.468	0
32	3451	0.469	0
32	3457	0.47	0
32	3467	0.471	0
32	3473	0.472	0
32	3479	0.473	0
32	3487	0.474	0
32	3495	0.475	0
32	3501	0.476	0
32	3511	0.477	0
32	3517	0.478	0
32	3523	0.479	0
32	3531	0.48	0
32	3539	0.481	0
32	3545	0.482	0
32	3555	0.483	0
32	3561	0.484	0
32	3567	0.485	0
32	3575	0.486	0
32	3583	0.487	0
32	3589	0.488	0
32	3599	0.489	0
32	3605	0.49	0
32	3611	0.491	0
32	3619	0.492	0
32	3627	0.493	0
32	3633	0.494	0
32	3643	0.495	0
32	3649	0.496	0
32	3655	0.497	0
32	3663	0.498	0
32	3671	0.499	0
32	3679	0.5	0
32	3689	0.501	0
32	3695	0.502	0
32	3701	0.503	0
32	3709	0.504	0
32	3717	0.505	0
32	3723	0.506	0
32	3733	0.507	0
32	3739	0.508	0
32	3745	0.509	0
32	3753	0.51	0
32	3761	0.511	0
32	3767	0.512	0
32	3777	0.513	0
32	3783	0.514	0
32	3789	0.515	0
32	3797	0.516	0
32	3805	0.517	0
32	3811	0.518	0
32	3821	0.519	0
32	3827	0.52	0
32	3833	0.521	0
32	3841	0.522	0
32	3849	0.523	0
32	3855	0.524	0
32	3865	0.525	0
32	3871	0.526	0
32	3877	0.527	0
32	3885	0.528	0
32	3893	0.529	0
32	3899	0.53	0
32	3909	0.531	0
32	3915	0.532	0
32	3921	0.533	0
32	3929	0.534	0
32	3937	0.535	0
32	3943	0.536	0
32	3953	0.537	0
32	3959	0.538	0
32	3965	0.539	0
32	3973	0.54	0
32	3981	0.541	0
32	3987	0.542	0
32	3997	0.543	0
32	4003	0.544	0
32	4009	0.545	0
32	4017	0.546	0
32	4025	0.547	0
32	4031	0.548	0
32	4041	0.549	0
32	4047	0.55	0
32	4053	0.551	0
32	4061	0.552	0
32	4069	0.553	0
32	4075	0.554	0
32	4085	0.555	0
32	4091	0.556	0
32	4097	0.557	0
32	4105	0.558	0
32	4113	0.559	0
32	4119	0.56	0
32	4129	0.561	0
32	4135	0.562	0
32	4141	0.563	0
32	4149	0.564	0
32	4157	0.565	0
32	4163	0.566	0
32	4173	0.567	0
32	4179	0.568	0
32	4185	0.569	0
32	4193	0.57	0
32	4201	0.571	0
32	4207	0.572	0
32	4217	0.573	0
32	4223	0.574	0
32	4229	0.575	0
32	4237	0.576	0
32	4245	0.577	0
32	4251	0.578	0
32	4261	0.579	0
32	4267	0.58	0
32	4273	0.581	0
32	4281	0.582	0
32	4289	0.583	0
32	4295	0.584	0
32	4305	0.585	0
32	4311	0.586	0
32	4317	0.587	0
32	4325	0.588	0
32	4333	0.589	0
32	4339	0.59	0
32	4349	0.591	0
32	4355	0.592	0
32	4361	0.593	0
32	4369	0.594	0
32	4377	0.595	0
32	4383	0.596	0
32	4393	0.597	0
32	4399	0.598	0
32	4405	0.599	0
32	4415	0.6	0
32	4423	0.601	0
32	4429	0.602	0
32	4439	0.603	0
32	4445	0.604	0
32	4451	0.605	0
32	4459	0.606	0
32	4467	0.607	0
32	4473	0.608	0
32	4483	0.609	0
32	4489	0.61	0
32	4495	0.611	0
32	4503	0.612	0
32	4511	0.613	0
32	4517	0.614	0
32	4527	0.615	0
32	4533	0.616	0
32	4539	0.617	0
32	4547	0.618	0
32	4555	0.619	0
32	4561	0.62	0
32	4571	0.621	0
32	4577	0.622	0
32	4583	0.623	0
32	4591	0.624	0
32	4599	0.625	0
32	4605	0.626	0
32	4615	0.627	0
32	4621	0.628	0
32	4627	0.629	0
32	4635	0.63	0
32	4643	0.631	0
32	4649	0.632	0
32	4659	0.633	0
32	4665	0.634	0
32	4671	0.635	0
32	4679	0.636	0
32	4687	0.637	0
32	4693	0.638	0
32	4703	0.639	0
32	4709	0.64	0
32	4715	0.641	0
32	4723	0.642	0
32	4731	0.643	0
32	4737	0.644	0
32	4747	0.645	0
32	4753	0.646	0
32	4759	0.647	0
32	4767	0.648	0
32	4775	0.649	0
32	4781	0.65	0
32	4791	0.651	0
32	4797	0.652	0
32	4803	0.653	0
32	4811	0.654	0
32	4819	0.655	0
32	4825	0.656	0
32	4835	0.657	0
32	4841	0.658	0
32	4847	0.659	0
32	4855	0.66	0
32	4863	0.661	0
32	4869	0.662	0
32	4879	0.663	0
32	4885	0.664	0
32	4891	0.665	0
32	4899	0.666	0
32	4907	0.667	0
32	4913	0.668	0
32	4923	0.669	0
32	4929	0.67	0
32	4935	0.671	0
32	4943	0.672	0
32	4951	0.673	0
32	4957	0.674	0
32	4967	0.675	0
32	4973	0.676	0
32	4979	0.677	0
32	4987	0.678	0
32	4995	0.679	0
32	5001	0.68	0
32	5011	0.681	0
32	5017	0.682	0
32	5023	0.683	0
32	5031	0.684	0
32	5039	0.685	0
32	5045	0.686	0
32	5055	0.687	0
32	5061	0.688	0
32	5067	0.689	0
32	5075	0.69	0
32	5083	0.691	0
32	5089	0.692	0
32	5099	0.693	0
32	5105	0.694	0
32	5111	0.695	0
32	5119	0.696	0
32	5127	0.697	0
32	5133	0.698	0
32	5143	0.699	0
32	5151	0.7	0
32	5157	0.701	0
32	5165	0.702	0
32	5173	0.703	0
32	5179	0.704	0
32	5189	0.705	0
32	5195	0.706	0
32	5201	0.707	0
32	5209	0.708	0
32	5217	0.709	0
32	5223	0.71	0
32	5233	0.711	0
32	5239	0.712	0
32	5245	0.713	0
32	5253	0.714	0
32	5261	0.715	0
32	5267	0.716	0
32	5277	0.717	0
32	5283	0.718	0
32	5289	0.719	0
32	5297	0.72	0
32	5305	0.721	0
32	5311	0.722	0
32	5321	0.723	0
32	5327	0.724	0
32	5333	0.725	0
32	5341	0.726	0
32	5349	0.727	0
32	5355	0.728	0
32	5365	0.729	0
32	5371	0.73	0
32	5377	0.731	0
32	5385	0.732	0
32	5393	0.733	0
32	5399	0.734	0
32	5409	0.735	0
32	5415	0.736	0
32	5421	0.737	0
32	5429	0.738	0
32	5437	0.739	0
32	5443	0.74	0
32	5453	0.741	0
32	5459	0.742	0
32	5465	0.743	0
32	5473	0.744	0
32	5481	0.745	0
32	5487	0.746	0
32	5497	0.747	0
32	5503	0.748	0
32	5509	0.749	0
32	5517	0.75	0
32	5525	0.751	0
32	5531	0.752	0
32	5541	0.753	0
32	5547	0.754	0
32	5553	0.755	0
32	5561	0.756	0
32	5569	0.757	0
32	5575	0.758	0
32	5585	0.759	0
32	5591	0.76	0
32	5597	0.761	0
32	5605	0.762	0
32	5613	0.763	0
32	5619	0.764	0
32	5629	0.765	0
32	5635	0.766	0
32	5641	0.767	0
32	5649	0.768	0
32	5657	0.769	0
32	5663	0.77	0
32	5673	0.771	0
32	5679	0.772	0
32	5685	0.773	0
32	5693	0.774	0
32	5701	0.775	0
32	5707	0.776	0
32	5717	0.777	0
32	5723	0.778	0
32	5729	0.779	0
32	5737	0.78	0
32	5745	0.781	0
32	5751	0.782	0
32	5761	0.783	0
32	5767	0.784	0
32	5773	0.785	0
32	5781	0.786	0
32	5789	0.787	0
32	5795	0.788	0
32	5805	0.789	0
32	5811	0.79	0
32	5817	0.791	0
32	5825	0.792	0
32	5833	0.793	0
32	5839	0.794	0
32	5849	0.795	0
32	5855	0.796	0
32	5861	0.797	0
32	5869	0.798	0
32	5877	0.799	0
32	5885	0.8	0
32	5895	0.801	0
32	5901	0.802	0
32	5907	0.803	0
32	5915	0.804	0
32	5923	0.805	0
32	5929	0.806	0
32	5939	0.807	0
32	5945	0.808	0
32	5951	0.809	0
32	5959	0.81	0
32	5967	0.811	0
32	5973	0.812	0
32	5983	0.813	0
32	5989	0.814	0
32	5995	0.815	0
32	6003	0.816	0
32	6011	0.817	0
32	6017	0.818	0
32	6027	0.819	0
32	6033	0.82	0
32	6039	0.821	0
32	6047	0.822	0
32	6055	0.823	0
32	6061	0.824	0
32	6071	0.825	0
32	6077	0.826	0
32	6083	0.827	0
32	6091	0.828	0
32	6099	0.829	0
32	6105	0.83	0
32	6115	0.831	0
32	6121	0.832	0
32	6127	0.833	0
32	6135	0.834	0
32	6143	0.835	0
32	6149	0.836	0
32	6159	0.837	0
32	6165	0.838	0
32	6171	0.839	0
32	6179	0.84	0
32	6187	0.841	0
32	6193	0.842	0
32	6203	0.843	0
32	6209	0.844	0
32	6215	0.845	0
32	6223	0.846	0
32	6231	0.847	0
32	6237	0.848	0
32	6247	0.849	0
32	6253	0.85	0
32	6259	0.851	0
32	6267	0.852	0
32	6275	0.853	0
32	6281	0.854	0
32	6291	0.855	0
32	6297	0.856	0
32	6303	0.857	0
32	6311	0.858	0
32	6319	0.859	0
32	6325	0.86	0
32	6335	0.861	0
32	6341	0.862	0
32	6347	0.863	0
32	6355	0.864	0
32	6363	0.865	0
32	6369	0.866	0
32	6379	0.867	0
32	6385	0.868	0
32	6391	0.869	0
32	6399	0.87	0
32	6407	0.871	0
32	6413	0.872	0
32	6423	0.873	0
32	6429	0.874	0
32	6435	0.875	0
32	6443	0.876	0
32	6451	0.877	0
32	6457	0.878	0
32	6467	0.879	0
32	6473	0.88	0
32	6479	0.881	0
32	6487	0.882	0
32	6495	0.883	0
32	6501	0.884	0
32	6511	0.885	0
32	6517	0.886	0
32	6523	0.887	0
32	6531	0.888	0
32	6539	0.889	0
32	6545	0.89	0
32	6555	0.891	0
32	6561	0.892	0
32	6567	0.893	0
32	6575	0.894	0
32	6583	0.895	0
32	6589	0.896	0
32	6599	0.897	0
32	6605	0.898	0
32	6611	0.899	0
32	6621	0.9	0
32	6629	0.901	0
32	6635	0.902	0
32	6645	0.903	0
32	6651	0.904	0
32	6657	0.905	0
32	6665	0.906	0
32	6673	0.907	0
32	6679	0.908	0
32	6689	0.909	0
32	6695	0.91	0
32	6701	0.911	0
32	6709	0.912	0
32	6717	0.913	0
32	6723	0.914	0
32	6733	0.915	0
32	6739	0.916	0
32	6745	0.917	0
32	6753	0.918	0
32	6761	0.919	0
32	6767	0.92	0
32	6777	0.921	0
32	6783	0.922	0
32	6789	0.923	0
32	6797	0.924	0
32	6805	0.925	0
32	6811	0.926	0
32	6821	0.927	0
32	6827	0.928	0
32	6833	0.929	0
32	6841	0.93	0
32	6849	0.931	0
32	6855	0.932	0
32	6865	0.933	0
32	6871	0.934	0
32	6877	0.935	0
32	6885	0.936	0
32	6893	0.937	0
32	6899	0.938	0
32	6909	0.939	0
32	6915	0.94	0
32	6921	0.941	0
32	6929	0.942	0
32	6937	0.943	0
32	6943	0.944	0
32	6953	0.945	0
32	6959	0.946	0
32	6965	0.947	0
32	6973	0.948	0
32	6981	0.949	0
32	6987	0.95	0
32	6997	0.951	0
32	7003	0.952	0
32	7009	0.953	0
32	7017	0.954	0
32	7025	0.955	0
32	7031	0.956	0
32	7041	0.957	0
32	7047	0.958	0
32	7053	0.959	0
32	7061	0.96	0
32	7069	0.961	0
32	7075	0.962	0
32	7085	0.963	0
32	7091	0.964	0
32	7097	0.965	0
32	7105	0.966	0
32	7113	0.967	0
32	7119	0.968	0
32	7129	0.969	0
32	7135	0.97	0
32	7141	0.971	0
32	7149	0.972	0
32	7157	0.973	0
32	7163	0.974	0
32	7173	0.975	0
32	7179	0.976	0
32	7185	0.977	0
32	7193	0.978	0
32	7201	0.979	0
32	7207	0.98	0
32	7217	0.981	0
32	7223	0.982	0
32	7229	0.983	0
32	7237	0.984	0
32	7245	0.985	0
32	7251	0.986	0
32	7261	0.987	0
32	7267	0.988	0
32	7273	0.989	0
32	7281	0.99	0
32	7289	0.991	0
32	7295	0.992	0
32	7305	0.993	0
32	7311	0.994	0
32	7317	0.995	0
32	7325	0.996	0
32	7333	0.997	0
32	7339	0.998	0
32	7349	0.999	0
32	7357	1	0
32	7363	1.001	0
32	7371	1.002	0
32	7379	1.003	0
32	7385	1.004	0
32	7395	1.005	0
32	7401	1.006	0
32	7407	1.007	0
32	7415	1.008	0
32	7423	1.009	0
32	7429	1.01	0
32	7439	1.011	0
32	7445	1.012	0
32	7451	1.013	0
32	7459	1.014	0
32	7467	1.015	0
32	7473	1.016	0
32	7483	1.017	0
32	7489	1.018	0
32	7495	1.019	0
32	7503	1.02	0
32	7511	1.021	0
32	7517	1.022	0
32	7527	1.023	0
32	7533	1.024	0
32	7539	1.025	0
32	7547	1.026	0
32	7555	1.027	0
32	7561	1.028	0
32	7571	1.029	0
32	7577	1.03	0
32	7583	1.031	0
32	7591	1.032	0
32	7599	1.033	0
32	7605	1.034	0
32	7615	1.035	0
32	7621	1.036	0
32	7627	1.037	0
32	7635	1.038	0
32	7643	1.039	0
32	7649	1.04	0
32	7659	1.041	0
32	7665	1.042	0
32	7671	1.043	0
32	7679	1.044	0
32	7687	1.045	0
32	7693	1.046	0
32	7703	1.047	0
32	7709	1.048	0
32	7715	1.049	0
32	7724	1.05	0
32	7732	1.051	0
32	7738	1.052	0
32	7748	1.053	0
32	7754	1.054	0
32	7760	1.055	0
32	7768	1.056	0
32	7776	1.057	0
32	7782	1.058	0
32	7792	1.059	0
32	7798	1.06	0
32	7804	1.061	0
32	7812	1.062	0
32	7820	1.063	0
32	7826	1.064	0
32	7836	1.065	0
32	7842	1.066	0
32	7848	1.067	0
32	7856	1.068	0
32	7864	1.069	0
32	7870	1.07	0
32	7880	1.071	0
32	7886	1.072	0
32	7892	1.073	0
32	7900	1.074	0
32	7908	1.075	0
32	7914	1.076	0
32	7924	1.077	0
32	7930	1.078	0
32	7936	1.079	0
32	7944	1.08	0
32	7952	1.081	0
32	7958	1.082	0
32	7968	1.083	0
32	7974	1.084	0
32	7980	1.085	0
32	7988	1.086	0
32	7996	1.087	0
32	8002	1.088	0
32	8012	1.089	0
32	8018	1.09	0
32	8024	1.091	0
32	8032	1.092	0
32	8040	1.093	0
32	8046	1.094	0
32	8056	1.095	0
32	8062	1.096	0
32	8068	1.097	0
32	8076	1.098	0
32	8084	1.099	0
32	8092	1.1	0
32	8102	1.101	0
32	8108	1.102	0
32	8114	1.103	0
32	8122	1.104	0
32	8130	1.105	0
32	8136	1.106	0
32	8146	1.107	0
32	8152	1.108	0
32	8158	1.109	0
32	8166	1.11	0
32	8174	1.111	0
32	8180	1.112	0
32	8190	1.113	0
32	8196	1.114	0
32	8202	1.115	0
32	8210	1.116	0
32	8218	1.117	0
32	8224	1.118	0
32	8234	1.119	0
32	8240	1.12	0
32	8246	1.121	0
32	8254	1.122	0
32	8262	1.123	0
32	8268	1.124	0
32	8278	1.125	0
32	8284	1.126	0
32	8290	1.127	0
32	8298	1.128	0
32	8306	1.129	0
32	8312	1.13	0
32	8322	1.131	0
32	8328	1.132	0
32	8334	1.133	0
32	8342	1.134	0
32	8350	1.135	0
32	8356	1.136	0
32	8366	1.137	0
32	8372	1.138	0
32	8378	1.139	0
32	8386	1.14	0
32	8394	1.141	0
32	8400	1.142	0
32	8410	1.143	0
32	8416	1.144	0
32	8422	1.145	0
32	8430	1.146	0
32	8438	1.147	0
32	8444	1.148	0
32	8454	1.149	0
32	8460	1.15	0
32	8466	1.151	0
32	8474	1.152	0
32	8482	1.153	0
32	8488	1.154	0
32	8498	1.155	0
32	8504	1.156	0
32	8510	1.157	0
32	8518	1.158	0
32	8526	1.159	0
32	8532	1.16	0
32	8542	1.161	0
32	8548	1.162	0
32	8554	1.163	0
32	8562	1.164	0
32	8570	1.165	0
32	8576	1.166	0
32	8586	1.167	0
32	8592	1.168	0
32	8598	1.169	0
32	8606	1.17	0
32	8614	1.171	0
32	8620	1.172	0
32	8630	1.173	0
32	8636	1.174	0
32	8642	1.175	0
32	8650	1.176	0
32	8658	1.177	0
32	8664	1.178	0
32	8674	1.179	0
32	8680	1.18	0
32	8686	1.181	0
32	8694	1.182	0
32	8702	1.183	0
32	8708	1.184	0
32	8718	1.185	0
32	8724	1.186	0
32	8730	1.187	0
32	8738	1.188	0
32	8746	1.189	0
32	8752	1.19	0
32	8762	1.191	0
32	8768	1.192	0
32	8774	1.193	0
32	8782	1.194	0
32	8790	1.195	0
32	8796	1.196	0
32	8806	1.197	0
32	8812	1.198	0
32	8818	1.199	0
32	8828	1.2	0
32	8836	1.201	0
32	8842	1.202	0
32	8852	1.203	0
32	8858	1.204	0
32	8864	1.205	0
32	8872	1.206	0
32	8880	1.207	0
32	8886	1.208	0
32	8896	1.209	0
32	8902	1.21	0
32	8908	1.211	0
32	8916	1.212	0
32	8924	1.213	0
32	8930	1.214	0
32	8940	1.215	0
32	8946	1.216	0
32	8952	1.217	0
32	8960	1.218	0
32	8968	1.219	0
32	8974	1.22	0
32	8984	1.221	0
32	8990	1.222	0
32	8996	1.223	0
32	9004	1.224	0
32	9012	1.225	0
32	9018	1.226	0
32	9028	1.227	0
32	9034	1.228	0
32	9040	1.229	0
32	9048	1.23	0
32	9056	1.231	0
32	9062	1.232	0
32	9072	1.233	0
32	9078	1.234	0
32	9084	1.235	0
32	9092	1.236	0
32	9100	1.237	0
32	9106	1.238	0
32	9116	1.239	0
32	9122	1.24	0
32	9128	1.241	0
32	9136	1.242	0
32	9144	1.243	0
32	9150	1.244	0
32	9160	1.245	0
32	9166	1.246	0
32	9172	1.247	0
32	9180	1.248	0
32	9188	1.249	0
32	9194	1.25	0
32	9204	1.251	0
32	9210	1.252	0
32	9216	1.253	0
32	9224	1.254	0
32	9232	1.255	0
32	9238	1.256	0
32	9248	1.257	0
32	9254	1.258	0
32	9260	1.259	0
32	9268	1.26	0
32	9276	1.261	0
32	9282	1.262	0
32	9292	1.263	0
32	9298	1.264	0
32	9304	1.265	0
32	9312	1.266	0
32	9320	1.267	0
32	9326	1.268	0
32	9336	1.269	0
32	9342	1.27	0
32	9348	1.271	0
32	9356	1.272	0
32	9364	1.273	0
32	9370	1.274	0
32	9380	1.275	0
32	9386	1.276	0
32	9392	1.277	0
32	9400	1.278	0
32	9408	1.279	0
32	9414	1.28	0
32	9424	1.281	0
32	9430	1.282	0
32	9436	1.283	0
32	9444	1.284	0
32	9452	1.285	0
32	9458	1.286	0
32	9468	1.287	0
32	9474	1.288	0
32	9480	1.289	0
32	9488	1.29	0
32	9496	1.291	0
32	9502	1.292	0
32	9512	1.293	0
32	9518	1.294	0
32	9524	1.295	0
32	9532	1.296	0
32	9540	1.297	0
32	9546	1.298	0
32	9556	1.299	0
32	9564	1.3	0
32	9570	1.301	0
32	9578	1.302	0
32	9586	1.303	0
32	9592	1.304	0
32	9602	1.305	0
32	9608	1.306	0
32	9614	1.307	0
32	9622	1.308	0
32	9630	1.309	0
32	9636	1.31	0
32	9646	1.311	0
32	9652	1.312	0
32	9658	1.313	0
32	9666	1.314	0
32	9674	1.315	0
32	9680	1.316	0
32	9690	1.317	0
32	9696	1.318	0
32	9702	1.319	0
32	9710	1.32	0
32	9718	1.321	0
32	9724	1.322	0
32	9734	1.323	0
32	9740	1.324	0
32	9746	1.325	0
32	9754	1.326	0
32	9762	1.327	0
32	9768	1.328	0
32	9778	1.329	0
32	9784	1.33	0
32	9790	1.331	0
32	9798	1.332	0
32	9806	1.333	0
32	9812	1.334	0
32	9822	1.335	0
32	9828	1.336	0
32	9834	1.337	0
32	9842	1.338	0
32	9850	1.339	0
32	9856	1.34	0
32	9866	1.341	0
32	9872	1.342	0
32	9878	1.343	0
32	9886	1.344	0
32	9894	1.345	0
32	9900	1.346	0
32	9910	1.347	0
32	9916	1.348	0
32	9922	1.349	0
32	9930	1.35	0
32	9938	1.351	0
32	9944	1.352	0
32	9954	1.353	0
32	9960	1.354	0
32	9966	1.355	0
32	9974	1.356	0
32	9982	1.357	0
32	9988	1.358	0
32	9998	1.359	0
32	10004	1.36	0
32	10010	1.361	0
32	10018	1.362	0
32	10026	1.363	0
32	10032	1.364	0
32	10042	1.365	0
32	10048	1.366	0
32	10054	1.367	0
32	10062	1.368	0
32	10070	1.369	0
32	10076	1.37	0
32	10086	1.371	0
32	10092	1.372	0
32	10098	1.373	0
32	10106	1.374	0
32	10114	1.375	0
32	10120	1.376	0
32	10130	1.377	0
32	10136	1.378	0
32	10142	1.379	0
32	10150	1.38	0
32	10158	1.381	0
32	10164	1.382	0
32	10174	1.383	0
32	10180	1.384	0
32	10186	1.385	0
32	10194	1.386	0
32	10202	1.387	0
32	10208	1.388	0
32	10218	1.389	0
32	10224	1.39	0
32	10230	1.391	0
32	10238	1.392	0
32	10246	1.393	0
32	10252	1.394	0
32	10262	1.395	0
32	10268	1.396	0
32	10274	1.397	0
32	10282	1.398	0
32	10290	1.399	0
32	10298	1.4	0
32	10308	1.401	0
32	10314	1.402	0
32	10320	1.403	0
32	10328	1.404	0
32	10336	1.405	0
32	10342	1.406	0
32	10352	1.407	0
32	10358	1.408	0
32	10364	1.409	0
32	10372	1.41	0
32	10380	1.411	0
32	10386	1.412	0
32	10396	1.413	0
32	10402	1.414	0
32	10408	1.415	0
32	10416	1.416	0
32	10424	1.417	0
32	10430	1.418	0
32	10440	1.419	0
32	10446	1.42	0
32	10452	1.421	0
32	10460	1.422	0
32	10468	1.423	0
32	10474	1.424	0
32	10484	1.425	0
32	10490	1.426	0
32	10496	1.427	0
32	10504	1.428	0
32	10512	1.429	0
32	10518	1.43	0
32	10528	1.431	0
32	10534	1.432	0
32	10540	1.433	0
32	10548	1.434	0
32	10556	1.435	0
32	10562	1.436	0
32	10572	1.437	0
32	10578	1.438	0
32	10584	1.439	0
32	10592	1.44	0
32	10600	1.441	0
32	10606	1.442	0
32	10616	1.443	0
32	10622	1.444	0
32	10628	1.445	0
32	10636	1.446	0
32	10644	1.447	0
32	10650	1.448	0
32	10660	1.449	0
32	10666	1.45	0
32	10672	1.451	0
32	10680	1.452	0
32	10688	1.453	0
32	10694	1.454	0
32	10704	1.455	0
32	10710	1.456	0
32	10716	1.457	0
32	10724	1.458	0
32	10732	1.459	0
32	10738	1.46	0
32	10748	1.461	0
32	10754	1.462	0
32	10760	1.463	0
32	10768	1.464	0
32	10776	1.465	0
32	10782	1.466	0
32	10792	1.467	0
32	10798	1.468	0
32	10804	1.469	0
32	10812	1.47	0
32	10820	1.471	0
32	10826	1.472	0
32	10836	1.473	0
32	10842	1.474	0
32	10848	1.475	0
32	10856	1.476	0
32	10864	1.477	0
32	10870	1.478	0
32	10880	1.479	0
32	10886	1.48	0
32	10892	1.481	0
32	10900	1.482	0
32	10908	1.483	0
32	10914	1.484	0
32	10924	1.485	0
32	10930	1.486	0
32	10936	1.487	0
32	10944	1.488	0
32	10952	1.489	0
32	10958	1.49	0
32	10968	1.491	0
32	10974	1.492	0
32	10980	1.493	0
32	10988	1.494	0
32	10996	1.495	0
32	11002	1.496	0
32	11012	1.497	0
32	11018	1.498	0
32	11024	1.499	0
32	11034	1.5	0
32	11042	1.501	0
32	11048	1.502	0
32	11058	1.503	0
32	11064	1.504	0
32	11070	1.505	0
32	11078	1.506	0
32	11086	1.507	0
32	11092	1.508	0
32	11102	1.509	0
32	11108	1.51	0
32	11114	1.511	0
32	11122	1.512	0
32	11130	1.513	0
32	11136	1.514	0
32	11146	1.515	0
32	11152	1.516	0
32	11158	1.517	0
32	11166	1.518	0
32	11174	1.519	0
32	11180	1.52	0
32	11190	1.521	0
32	11196	1.522	0
32	11202	1.523	0
32	11210	1.524	0
32	11218	1.525	0
32	11224	1.526	0
32	11234	1.527	0
32	11240	1.528	0
32	11246	1.529	0
32	11254	1.53	0
32	11262	1.531	0
32	11268	1.532	0
32	11278	1.533	0
32	11284	1.534	0
32	11290	1.535	0
32	11298	1.536	0
32	11306	1.537	0
32	11312	1.538	0
32	11322	1.539	0
32	11328	1.54	0
32	11334	1.541	0
32	11342	1.542	0
32	11350	1.543	0
32	11356	1.544	0
32	11366	1.545	0
32	11372	1.546	0
32	11378	1.547	0
32	11386	1.548	0
32	11394	1.549	0
32	11400	1.55	0
32	11410	1.551	0
32	11416	1.552	0
32	11422	1.553	0
32	11430	1.554	0
32	11438	1.555	0
32	11444	1.556	0
32	11454	1.557	0
32	11460	1.558	0
32	11466	1.559	0
32	11474	1.56	0
32	11482	1.561	0
32	11488	1.562	0
32	11498	1.563	0
32	11504	1.564	0
32	11510	1.565	0
32	11518	1.566	0
32	11526	1.567	0
32	11532	1.568	0
32	11542	1.569	0
32	11548	1.57	0
32	11554	1.571	0
32	11562	1.572	0
32	11570	1.573	0
32	11576	1.574	0
32	11586	1.575	0
32	11592	1.576	0
32	11598	1.577	0
32	11606	1.578	0
32	11614	1.579	0
32	11620	1.58	0
32	11630	1.581	0
32	11636	1.582	0
32	11642	1.583	0
32	11650	1.584	0
32	11658	1.585	0
32	11664	1.586	0
32	11674	1.587	0
32	11680	1.588	0
32	11686	1.589	0
32	11694	1.59	0
32	11702	1.591	0
32	11708	1.592	0
32	11718	1.593	0
32	11724	1.594	0
32	11730	1.595	0
32	11738	1.596	0
32	11746	1.597	0
32	11752	1.598	0
32	11762	1.599	0
32	11770	1.6	0
32	11776	1.601	0
32	11784	1.602	0
32	11792	1.603	0
32	11798	1.604	0
32	11808	1.605	0
32	11814	1.606	0
32	11820	1.607	0
32	11828	1.608	0
32	11836	1.609	0
32	11842	1.61	0
32	11852	1.611	0
32	11858	1.612	0
32	11864	1.613	0
32	11872	1.614	0
32	11880	1.615	0
32	11886	1.616	0
32	11896	1.617	0
32	11902	1.618	0
32	11908	1.619	0
32	11916	1.62	0
32	11924	1.621	0
32	11930	1.622	0
32	11940	1.623	0
32	11946	1.624	0
32	11952	1.625	0
32	11960	1.626	0
32	11968	1.627	0
32	11974	1.628	0
32	11984	1.629	0
32	11990	1.63	0
32	11996	1.631	0
32	12004	1.632	0
32	12012	1.633	0
32	12018	1.634	0
32	12028	1.635	0
32	12034	1.636	0
32	12040	1.637	0
32	12048	1.638	0
32	12056	1.639	0
32	12062	1.64	0
32	12072	1.641	0
32	12078	1.642	0
32	12084	1.643	0
32	12092	1.644	0
32	12100	1.645	0
32	12106	1.646	0
32	12116	1.647	0
32	12122	1.648	0
32	12128	1.649	0
32	12136	1.65	0
32	12144	1.651	0
32	12150	1.652	0
32	12160	1.653	0
32	12166	1.654	0
32	12172	1.655	0
32	12180	1.656	0
32	12188	1.657	0
32	12194	1.658	0
32	12204	1.659	0
32	12210	1.66	0
32	12216	1.661	0
32	12224	1.662	0
32	12232	1.663	0
32	12238	1.664	0
32	12248	1.665	0
32	12254	1.666	0
32	12260	1.667	0
32	12268	1.668	0
32	12276	1.669	0
32	12282	1.67	0
32	12292	1.671	0
32	12298	1.672	0
32	12304	1.673	0
32	12312	1.674	0
32	12320	1.675	0
32	12326	1.676	0
32	12336	1.677	0
32	12342	1.678	0
32	12348	1.679	0
32	12356	1.68	0
32	12364	1.681	0
32	12370	1.682	0
32	12380	1.683	0
32	12386	1.684	0
32	12392	1.685	0
32	12400	1.686	0
32	12408	1.687	0
32	12414	1.688	0
32	12424	1.689	0
32	12430	1.69	0
32	12436	1.691	0
32	12444	1.692	0
32	12452	1.693	0
32	12458	1.694	0
32	12468	1.695	0
32	12474	1.696	0
32	12480	1.697	0
32	12488	1.698	0
32	12496	1.699	0
32	12504	1.7	0
32	12514	1.701	0
32	12520	1.702	0
32	12526	1.703	0
32	12534	1.704	0
32	12542	1.705	0
32	12548	1.706	0
32	12558	1.707	0
32	12564	1.708	0
32	12570	1.709	0
32	12578	1.71	0
32	12586	1.711	0
32	12592	1.712	0
32	12602	1.713	0
32	12608	1.714	0
32	12614	1.715	0
32	12622	1.716	0
32	12630	1.717	0
32	12636	1.718	0
32	12646	1.719	0
32	12652	1.72	0
32	12658	1.721	0
32	12666	1.722	0
32	12674	1.723	0
32	12680	1.724	0
32	12690	1.725	0
32	12696	1.726	0
32	12702	1.727	0
32	12710	1.728	0
32	12718	1.729	0
32	12724	1.73	0
32	12734	1.731	0
32	12740	1.732	0
32	12746	1.733	0
32	12754	1.734	0
32	12762	1.735	0
32	12768	1.736	0
32	12778	1.737	0
32	12784	1.738	0
32	12790	1.739	0
32	12798	1.74	0
32	12806	1.741	0
32	12812	1.742	0
32	12822	1.743	0
32	12828	1.744	0
32	12834	1.745	0
32	12842	1.746	0
32	12850	1.747	0
32	12856	1.748	0
32	12866	1.749	0
32	12872	1.75	0
32	12878	1.751	0
32	12886	1.752	0
32	12894	1.753	0
32	12900	1.754	0
32	12910	1.755	0
32	12916	1.756	0
32	12922	1.757	0
32	12930	1.758	0
32	12938	1.759	0
32	12944	1.76	0
32	12954	1.761	0
32	12960	1.762	0
32	12966	1.763	0
32	12974	1.764	0
32	12982	1.765	0
32	12988	1.766	0
32	12998	1.767	0
32	13004	1.768	0
32	13010	1.769	0
32	13018	1.77	0
32	13026	1.771	0
32	13032	1.772	0
32	13042	1.773	0
32	13048	1.774	0
32	13054	1.775	0
32	13062	1.776	0
32	13070	1.777	0
32	13076	1.778	0
32	13086	1.779	0
32	13092	1.78	0
32	13098	1.781	0
32	13106	1.782	0
32	13114	1.783	0
32	13120	1.784	0
32	13130	1.785	0
32	13136	1.786	0
32	13142	1.787	0
32	13150	1.788	0
32	13158	1.789	0
32	13164	1.79	0
32	13174	1.791	0
32	13180	1.792	0
32	13186	1.793	0
32	13194	1.794	0
32	13202	1.795	0
32	13208	1.796	0
32	13218	1.797	0
32	13224	1.798	0
32	13230	1.799	0
32	13240	1.8	0
32	13248	1.801	0
32	13254	1.802	0
32	13264	1.803	0
32	13270	1.804	0
32	13276	1.805	0
32	13284	1.806	0
32	13292	1.807	0
32	13298	1.808	0
32	13308	1.809	0
32	13314	1.81	0
32	13320	1.811	0
32	13328	1.812	0
32	13336	1.813	0
32	13342	1.814	0
32	13352	1.815	0
32	13358	1.816	0
32	13364	1.817	0
32	13372	1.818	0
32	13380	1.819	0
32	13386	1.82	0
32	13396	1.821	0
32	13402	1.822	0
32	13408	1.823	0
32	13416	1.824	0
32	13424	1.825	0
32	13430	1.826	0
32	13440	1.827	0
32	13446	1.828	0
32	13452	1.829	0
32	13460	1.83	0
32	13468	1.831	0
32	13474	1.832	0
32	13484	1.833	0
32	13490	1.834	0
32	13496	1.835	0
32	13504	1.836	0
32	13512	1.837	0
32	13518	1.838	0
32	13528	1.839	0
32	13534	1.84	0
32	13540	1.841	0
32	13548	1.842	0
32	13556	1.843	0
32	13562	1.844	0
32	13572	1.845	0
32	13578	1.846	0
32	13584	1.847	0
32	13592	1.848	0
32	13600	1.849	0
32	13606	1.85	0
32	13616	1.851	0
32	13622	1.852	0
32	13628	1.853	0
32	13636	1.854	0
32	13644	1.855	0
32	13650	1.856	0
32	13660	1.857	0
32	13666	1.858	0
32	13672	1.859	0
32	13680	1.86	0
32	13688	1.861	0
32	13694	1.862	0
32	13704	1.863	0
32	13710	1.864	0
32	13716	1.865	0
32	13724	1.866	0
32	13732	1.867	0
32	13738	1.868	0
32	13748	1.869	0
32	13754	1.87	0
32	13760	1.871	0
32	13768	1.872	0
32	13776	1.873	0
32	13782	1.874	0
32	13792	1.875	0
32	13798	1.876	0
32	13804	1.877	0
32	13812	1.878	0
32	13820	1.879	0
32	13826	1.88	0
32	13836	1.881	0
32	13842	1.882	0
32	13848	1.883	0
32	13856	1.884	0
32	13864	1.885	0
32	13870	1.886	0
32	13880	1.887	0
32	13886	1.888	0
32	13892	1.889	0
32	13900	1.89	0
32	13908	1.891	0
32	13914	1.892	0
32	13924	1.893	0
32	13930	1.894	0
32	13936	1.895	0
32	13944	1.896	0
32	13952	1.897	0
32	13958	1.898	0
32	13968	1.899	0
32	13976	1.9	0
32	13982	1.901	0
32	13990	1.902	0
32	13998	1.903	0
32	14004	1.904	0
32	14014	1.905	0
32	14020	1.906	0
32	14026	1.907	0
32	14034	1.908	0
32	14042	1.909	0
32	14048	1.91	0
32	14058	1.911	0
32	14064	1.912	0
32	14070	1.913	0
32	14078	1.914	0
32	14086	1.915	0
32	14092	1.916	0
32	14102	1.917	0
32	14108	1.918	0
32	14114	1.919	0
32	14122	1.92	0
32	14130	1.921	0
32	14136	1.922	0
32	14146	1.923	0
32	14152	1.924	0
32	14158	1.925	0
32	14166	1.926	0
32	14174	1.927	0
32	14180	1.928	0
32	14190	1.929	0
32	14196	1.93	0
32	14202	1.931	0
32	14210	1.932	0
32	14218	1.933	0
32	14224	1.934	0
32	14234	1.935	0
32	14240	1.936	0
32	14246	1.937	0
32	14254	1.938	0
32	14262	1.939	0
32	14268	1.94	0
32	14278	1.941	0
32	14284	1.942	0
32	14290	1.943	0
32	14298	1.944	0
32	14306	1.945	0
32	14312	1.946	0
32	14322	1.947	0
32	14328	1.948	0
32	14334	1.949	0
32	14342	1.95	0
32	14350	1.951	0
32	14356	1.952	0
32	14366	1.953	0
32	14372	1.954	0
32	14378	1.955	0
32	14386	1.956	0
32	14394	1.957	0
32	14400	1.958	0
32	14410	1.959	0
32	14416	1.96	0
32	14422	1.961	0
32	14430	1.962	0
32	14438	1.963	0
32	14444	1.964	0
32	14454	1.965	0
32	14460	1.966	0
32	14466	1.967	0
32	14474	1.968	0
32	14482	1.969	0
32	14488	1.97	0
32	14498	1.971	0
32	14504	1.972	0
32	14510	1.973	0
32	14518	1.974	0
32	14526	1.975	0
32	14532	1.976	0
32	14542	1.977	0
32	14548	1.978	0
32	14554	1.979	0
32	14562	1.98	0
32	14570	1.981	0
32	14576	1.982	0
32	14586	1.983	0
32	14592	1.984	0
32	14598	1.985	0
32	14606	1.986	0
32	14614	1.987	0
32	14620	1.988	0
32	14630	1.989	0
32	14636	1.99	0
32	14642	1.991	0
32	14650	1.992	0
32	14658	1.993	0
32	14664	1.994	0
32	14674	1.995	0
32	14680	1.996	0
32	14686	1.997	0
32	14694	1.998	0
32	14702	1.999	0
32	14710	2	0
32	14720	2.001	0
32	14726	2.002	0
32	14732	2.003	0
32	14740	2.004	0
32	14748	2.005	0
32	14754	2.006	0
32	14764	2.007	0
32	14770	2.008	0
32	14776	2.009	0
32	14784	2.01	0
32	14792	2.011	0
32	14798	2.012	0
32	14808	2.013	0
32	14814	2.014	0
32	14820	2.015	0
32	14828	2.016	0
32	14836	2.017	0
32	14842	2.018	0
32	14852	2.019	0
32	14858	2.02	0
32	14864	2.021	0
32	14872	2.022	0
32	14880	2.023	0
32	14886	2.024	0
32	14896	2.025	0
32	14902	2.026	0
32	14908	2.027	0
32	14916	2.028	0
32	14924	2.029	0
32	14930	2.03	0
32	14940	2.031	0
32	14946	2.032	0
32	14952	2.033	0
32	14960	2.034	0
32	14968	2.035	0
32	14974	2.036	0
32	14984	2.037	0
32	14990	2.038	0
32	14996	2.039	0
32	15004	2.04	0
32	15012	2.041	0
32	15018	2.042	0
32	15028	2.043	0
32	15034	2.044	0
32	15040	2.045	0
32	15048	2.046	0
32	15056	2.047	0
32	15062	2.048	0
32	15072	2.049	0
32	15079	2.05	0
32	15085	2.051	0
32	15093	2.052	0
32	15101	2.053	0
32	15107	2.054	0
32	15117	2.055	0
32	15123	2.056	0
32	15129	2.057	0
32	15137	2.058	0
32	15145	2.059	0
32	15151	2.06	0
32	15161	2.061	0
32	15167	2.062	0
32	15173	2.063	0
32	15181	2.064	0
32	15189	2.065	0
32	15195	2.066	0
32	15205	2.067	0
32	15211	2.068	0
32	15217	2.069	0
32	15225	2.07	0
32	15233	2.071	0
32	15239	2.072	0
32	15249	2.073	0
32	15255	2.074	0
32	15261	2.075	0
32	15269	2.076	0
32	15277	2.077	0
32	15283	2.078	0
32	15293	2.079	0
32	15299	2.08	0
32	15305	2.081	0
32	15313	2.082	0
32	15321	2.083	0
32	15327	2.084	0
32	15337	2.085	0
32	15343	2.086	0
32	15349	2.087	0
32	15357	2.088	0
32	15365	2.089	0
32	15371	2.09	0
32	15381	2.091	0
32	15387	2.092	0
32	15393	2.093	0
32	15401	2.094	0
32	15409	2.095	0
32	15415	2.096	0
32	15425	2.097	0
32	15431	2.098	0
32	15437	2.099	0
32	15447	2.1	0
32	15455	2.101	0
32	15461	2.102	0
32	15471	2.103	0
32	15477	2.104	0
32	15483	2.105	0
32	15491	2.106	0
32	15499	2.107	0
32	15505	2.108	0
32	15515	2.109	0
32	15521	2.11	0
32	15527	2.111	0
32	15535	2.112	0
32	15543	2.113	0
32	15549	2.114	0
32	15559	2.115	0
32	15565	2.116	0
32	15571	2.117	0
32	15579	2.118	0
32	15587	2.119	0
32	15593	2.12	0
32	15603	2.121	0
32	15609	2.122	0
32	15615	2.123	0
32	15623	2.124	0
32	15631	2.125	0
32	15637	2.126	0
32	15647	2.127	0
32	15653	2.128	0
32	15659	2.129	0
32	15667	2.13	0
32	15675	2.131	0
32	15681	2.132	0
32	15691	2.133	0
32	15697	2.134	0
32	15703	2.135	0
32	15711	2.136	0
32	15719	2.137	0
32	15725	2.138	0
32	15735	2.139	0
32	15741	2.14	0
32	15747	2.141	0
32	15755	2.142	0
32	15763	2.143	0
32	15769	2.144	0
32	15779	2.145	0
32	15785	2.146	0
32	15791	2.147	0
32	15799	2.148	0
32	15807	2.149	0
32	15813	2.15	0
32	15823	2.151	0
32	15829	2.152	0
32	15835	2.153	0
32	15843	2.154	0
32	15851	2.155	0
32	15857	2.156	0
32	15867	2.157	0
32	15873	2.158	0
32	15879	2.159	0
32	15887	2.16	0
32	15895	2.161	0
32	15901	2.162	0
32	15911	2.163	0
32	15917	2.164	0
32	15923	2.165	0
32	15931	2.166	0
32	15939	2.167	0
32	15945	2.168	0
32	15955	2.169	0
32	15961	2.17	0
32	15967	2.171	0
32	15975	2.172	0
32	15983	2.173	0
32	15989	2.174	0
32	15999	2.175	0
32	16005	2.176	0
32	16011	2.177	0
32	16019	2.178	0
32	16027	2.179	0
32	16033	2.18	0
32	16043	2.181	0
32	16049	2.182	0
32	16055	2.183	0
32	16063	2.184	0
32	16071	2.185	0
32	16077	2.186	0
32	16087	2.187	0
32	16093	2.188	0
32	16099	2.189	0
32	16107	2.19	0
32	16115	2.191	0
32	16121	2.192	0
32	16131	2.193	0
32	16137	2.194	0
32	16143	2.195	0
32	16151	2.196	0
32	16159	2.197	0
32	16165	2.198	0
32	16175	2.199	0
32	16183	2.2	0
32	16189	2.201	0
32	16197	2.202	0
32	16205	2.203	0
32	16211	2.204	0
32	16221	2.205	0
32	16227	2.206	0
32	16233	2.207	0
32	16241	2.208	0
32	16249	2.209	0
32	16255	2.21	0
32	16265	2.211	0
32	16271	2.212	0
32	16277	2.213	0
32	16285	2.214	0
32	16293	2.215	0
32	16299	2.216	0
32	16309	2.217	0
32	16315	2.218	0
32	16321	2.219	0
32	16329	2.22	0
32	16337	2.221	0
32	16343	2.222	0
32	16353	2.223	0
32	16359	2.224	0
32	16365	2.225	0
32	16373	2.226	0
32	16381	2.227	0
32	16387	2.228	0
32	16397	2.229	0
32	16403	2.23	0
32	16409	2.231	0
32	16417	2.232	0
32	16425	2.233	0
32	16431	2.234	0
32	16441	2.235	0
32	16447	2.236	0
32	16453	2.237	0
32	16461	2.238	0
32	16469	2.239	0
32	16475	2.24	0
32	16485	2.241	0
32	16491	2.242	0
32	16497	2.243	0
32	16505	2.244	0
32	16513	2.245	0
32	16519	2.246	0
32	16529	2.247	0
32	16535	2.248	0
32	16541	2.249	0
32	16549	2.25	0
32	16557	2.251	0
32	16563	2.252	0
32	16573	2.253	0
32	16579	2.254	0
32	16585	2.255	0
32	16593	2.256	0
32	16601	2.257	0
32	16607	2.258	0
32	16617	2.259	0
32	16623	2.26	0
32	16629	2.261	0
32	16637	2.262	0
32	16645	2.263	0
32	16651	2.264	0
32	16661	2.265	0
32	16667	2.266	0
32	16673	2.267	0
32	16681	2.268	0
32	16689	2.269	0
32	16695	2.27	0
32	16705	2.271	0
32	16711	2.272	0
32	16717	2.273	0
32	16725	2.274	0
32	16733	2.275	0
32	16739	2.276	0
32	16749	2.277	0
32	16755	2.278	0
32	16761	2.279	0
32	16769	2.28	0
32	16777	2.281	0
32	16783	2.282	0
32	16793	2.283	0
32	16799	2.284	0
32	16805	2.285	0
32	16813	2.286	0
32	16821	2.287	0
32	16827	2.288	0
32	16837	2.289	0
32	16843	2.29	0
32	16849	2.291	0
32	16857	2.292	0
32	16865	2.293	0
32	16871	2.294	0
32	16881	2.295	0
32	16887	2.296	0
32	16893	2.297	0
32	16901	2.298	0
32	16909	2.299	0
32	16917	2.3	0
32	16927	2.301	0
32	16933	2.302	0
32	16939	2.303	0
32	16947	2.304	0
32	16955	2.305	0
32	16961	2.306	0
32	16971	2.307	0
32	16977	2.308	0
32	16983	2.309	0
32	16991	2.31	0
32	16999	2.311	0
32	17005	2.312	0
32	17015	2.313	0
32	17021	2.314	0
32	17027	2.315	0
32	17035	2.316	0
32	17043	2.317	0
32	17049	2.318	0
32	17059	2.319	0
32	17065	2.32	0
32	17071	2.321	0
32	17079	2.322	0
32	17087	2.323	0
32	17093	2.324	0
32	17103	2.325	0
32	17109	2.326	0
32	17115	2.327	0
32	17123	2.328	0
32	17131	2.329	0
32	17137	2.33	0
32	17147	2.331	0
32	17153	2.332	0
32	17159	2.333	0
32	17167	2.334	0
32	17175	2.335	0
32	17181	2.336	0
32	17191	2.337	0
32	17197	2.338	0
32	17203	2.339	0
32	17211	2.34	0
32	17219	2.341	0
32	17225	2.342	0
32	17235	2.343	0
32	17241	2.344	0
32	17247	2.345	0
32	17255	2.346	0
32	17263	2.347	0
32	17269	2.348	0
32	17279	2.349	0
32	17285	2.35	0
32	17291	2.351	0
32	17299	2.352	0
32	17307	2.353	0
32	17313	2.354	0
32	17323	2.355	0
32	17329	2.356	0
32	17335	2.357	0
32	17343	2.358	0
32	17351	2.359	0
32	17357	2.36	0
32	17367	2.361	0
32	17373	2.362	0
32	17379	2.363	0
32	17387	2.364	0
32	17395	2.365	0
32	17401	2.366	0
32	17411	2.367	0
32	17417	2.368	0
32	17423	2.369	0
32	17431	2.37	0
32	17439	2.371	0
32	17445	2.372	0
32	17455	2.373	0
32	17461	2.374	0
32	17467	2.375	0
32	17475	2.376	0
32	17483	2.377	0
32	17489	2.378	0
32	17499	2.379	0
32	17505	2.38	0
32	17511	2.381	0
32	17519	2.382	0
32	17527	2.383	0
32	17533	2.384	0
32	17543	2.385	0
32	17549	2.386	0
32	17555	2.387	0
32	17563	2.388	0
32	17571	2.389	0
32	17577	2.39	0
32	17587	2.391	0
32	17593	2.392	0
32	17599	2.393	0
32	17607	2.394	0
32	17615	2.395	0
32	17621	2.396	0
32	17631	2.397	0
32	17637	2.398	0
32	17643	2.399	0
32	17653	2.4	0
32	17661	2.401	0
32	17667	2.402	0
32	17677	2.403	0
32	17683	2.404	0
32	17689	2.405	0
32	17697	2.406	0
32	17705	2.407	0
32	17711	2.408	0
32	17721	2.409	0
32	17727	2.41	0
32	17733	2.411	0
32	17741	2.412	0
32	17749	2.413	0
32	17755	2.414	0
32	17765	2.415	0
32	17771	2.416	0
32	17777	2.417	0
32	17785	2.418	0
32	17793	2.419	0
32	17799	2.42	0
32	17809	2.421	0
32	17815	2.422	0
32	17821	2.423	0
32	17829	2.424	0
32	17837	2.425	0
32	17843	2.426	0
32	17853	2.427	0
32	17859	2.428	0
32	17865	2.429	0
32	17873	2.43	0
32	17881	2.431	0
32	17887	2.432	0
32	17897	2.433	0
32	17903	2.434	0
32	17909	2.435	0
32	17917	2.436	0
32	17925	2.437	0
32	17931	2.438	0
32	17941	2.439	0
32	17947	2.44	0
32	17953	2.441	0
32	17961	2.442	0
32	17969	2.443	0
32	17975	2.444	0
32	17985	2.445	0
32	17991	2.446	0
32	17997	2.447	0
32	18005	2.448	0
32	18013	2.449	0
32	18019	2.45	0
32	18029	2.451	0
32	18035	2.452	0
32	18041	2.453	0
32	18049	2.454	0
32	18057	2.455	0
32	18063	2.456	0
32	18073	2.457	0
32	18079	2.458	0
32	18085	2.459	0
32	18093	2.46	0
32	18101	2.461	0
32	18107	2.462	0
32	18117	2.463	0
32	18123	2.464	0
32	18129	2.465	0
32	18137	2.466	0
32	18145	2.467	0
32	18151	2.468	0
32	18161	2.469	0
32	18167	2.47	0
32	18173	2.471	0
32	18181	2.472	0
32	18189	2.473	0
32	18195	2.474	0
32	18205	2.475	0
32	18211	2.476	0
32	18217	2.477	0
32	18225	2.478	0
32	18233	2.479	0
32	18239	2.48	0
32	18249	2.481	0
32	18255	2.482	0
32	18261	2.483	0
32	18269	2.484	0
32	18277	2.485	0
32	18283	2.486	0
32	18293	2.487	0
32	18299	2.488	0
32	18305	2.489	0
32	18313	2.49	0
32	18321	2.491	0
32	18327	2.492	0
32	18337	2.493	0
32	18343	2.494	0
32	18349	2.495	0
32	18357	2.496	0
32	18365	2.497	0
32	18371	2.498	0
32	18381	2.499	0
32	18389	2.5	0
32	18395	2.501	0
32	18403	2.502	0
32	18411	2.503	0
32	18417	2.504	0
32	18427	2.505	0
32	18433	2.506	0
32	18439	2.507	0
32	18447	2.508	0
32	18455	2.509	0
32	18461	2.51	0
32	18471	2.511	0
32	18477	2.512	0
32	18483	2.513	0
32	18491	2.514	0
32	18499	2.515	0
32	18505	2.516	0
32	18515	2.517	0
32	18521	2.518	0
32	18527	2.519	0
32	18535	2.52	0
32	18543	2.521	0
32	18549	2.522	0
32	18559	2.523	0
32	18565	2.524	0
32	18571	2.525	0
32	18579	2.526	0
32	18587	2.527	0
32	18593	2.528	0
32	18603	2.529	0
32	18609	2.53	0
32	18615	2.531	0
32	18623	2.532	0
32	18631	2.533	0
32	18637	2.534	0
32	18647	2.535	0
32	18653	2.536	0
32	18659	2.537	0
32	18667	2.538	0
32	18675	2.539	0
32	18681	2.54	0
32	18691	2.541	0
32	18697	2.542	0
32	18703	2.543	0
32	18711	2.544	0
32	18719	2.545	0
32	18725	2.546	0
32	18735	2.547	0
32	18741	2.548	0
32	18747	2.549	0
32	18755	2.55	0
32	18763	2.551	0
32	18769	2.552	0
32	18779	2.553	0
32	18785	2.554	0
32	18791	2.555	0
32	18799	2.556	0
32	18807	2.557	0
32	18813	2.558	0
32	18823	2.559	0
32	18829	2.56	0
32	18835	2.561	0
32	18843	2.562	0
32	18851	2.563	0
32	18857	2.564	0
32	18867	2.565	0
32	18873	2.566	0
32	18879	2.567	0
32	18887	2.568	0
32	18895	2.569	0
32	18901	2.57	0
32	18911	2.571	0
32	18917	2.572	0
32	18923	2.573	0
32	18931	2.574	0
32	18939	2.575	0
32	18945	2.576	0
32	18955	2.577	0
32	18961	2.578	0
32	18967	2.579	0
32	18975	2.58	0
32	18983	2.581	0
32	18989	2.582	0
32	18999	2.583	0
32	19005	2.584	0
32	19011	2.585	0
32	19019	2.586	0
32	19027	2.587	0
32	19033	2.588	0
32	19043	2.589	0
32	19049	2.59	0
32	19055	2.591	0
32	19063	2.592	0
32	19071	2.593	0
32	19077	2.594	0
32	19087	2.595	0
32	19093	2.596	0
32	19099	2.597	0
32	19107	2.598	0
32	19115	2.599	0
32	19123	2.6	0
32	19133	2.601	0
32	19139	2.602	0
32	19145	2.603	0
32	19153	2.604	0
32	19161	2.605	0
32	19167	2.606	0
32	19177	2.607	0
32	19183	2.608	0
32	19189	2.609	0
32	19197	2.61	0
32	19205	2.611	0
32	19211	2.612	0
32	19221	2.613	0
32	19227	2.614	0
32	19233	2.615	0
32	19241	2.616	0
32	19249	2.617	0
32	19255	2.618	0
32	19265	2.619	0
32	19271	2.62	0
32	19277	2.621	0
32	19285	2.622	0
32	19293	2.623	0
32	19299	2.624	0
32	19309	2.625	0
32	19315	2.626	0
32	19321	2.627	0
32	19329	2.628	0
32	19337	2.629	0
32	19343	2.63	0
32	19353	2.631	0
32	19359	2.632	0
32	19365	2.633	0
32	19373	2.634	0
32	19381	2.635	0
32	19387	2.636	0
32	19397	2.637	0
32	19403	2.638	0
32	19409	2.639	0
32	19417	2.64	0
32	19425	2.641	0
32	19431	2.642	0
32	19441	2.643	0
32	19447	2.644	0
32	19453	2.645	0
32	19461	2.646	0
32	19469	2.647	0
32	19475	2.648	0
32	19485	2.649	0
32	19491	2.65	0
32	19497	2.651	0
32	19505	2.652	0
32	19513	2.653	0
32	19519	2.654	0
32	19529	2.655	0
32	19535	2.656	0
32	19541	2.657	0
32	19549	2.658	0
32	19557	2.659	0
32	19563	2.66	0
32	19573	2.661	0
32	19579	2.662	0
32	19585	2.663	0
32	19593	2.664	0
32	19601	2.665	0
32	19607	2.666	0
32	19617	2.667	0
32	19623	2.668	0
32	19629	2.669	0
32	19637	2.67	0
32	19645	2.671	0
32	19651	2.672	0
32	19661	2.673	0
32	19667	2.674	0
32	19673	2.675	0
32	19681	2.676	0
32	19689	2.677	0
32	19695	2.678	0
32	19705	2.679	0
32	19711	2.68	0
32	19717	2.681	0
32	19725	2.682	0
32	19733	2.683	0
32	19739	2.684	0
32	19749	2.685	0
32	19755	2.686	0
32	19761	2.687	0
32	19769	2.688	0
32	19777	2.689	0
32	19783	2.69	0
32	19793	2.691	0
32	19799	2.692	0
32	19805	2.693	0
32	19813	2.694	0
32	19821	2.695	0
32	19827	2.696	0
32	19837	2.697	0
32	19843	2.698	0
32	19849	2.699	0
32	19859	2.7	0
32	19867	2.701	0
32	19873	2.702	0
32	19883	2.703	0
32	19889	2.704	0
32	19895	2.705	0
32	19903	2.706	0
32	19911	2.707	0
32	19917	2.708	0
32	19927	2.709	0
32	19933	2.71	0
32	19939	2.711	0
32	19947	2.712	0
32	19955	2.713	0
32	19961	2.714	0
32	19971	2.715	0
32	19977	2.716	0
32	19983	2.717	0
32	19991	2.718	0
32	19999	2.719	0
32	20005	2.72	0
32	20015	2.721	0
32	20021	2.722	0
32	20027	2.723	0
32	20035	2.724	0
32	20043	2.725	0
32	20049	2.726	0
32	20059	2.727	0
32	20065	2.728	0
32	20071	2.729	0
32	20079	2.73	0
32	20087	2.731	0
32	20093	2.732	0
32	20103	2.733	0
32	20109	2.734	0
32	20115	2.735	0
32	20123	2.736	0
32	20131	2.737	0
32	20137	2.738	0
32	20147	2.739	0
32	20153	2.74	0
32	20159	2.741	0
32	20167	2.742	0
32	20175	2.743	0
32	20181	2.744	0
32	20191	2.745	0
32	20197	2.746	0
32	20203	2.747	0
32	20211	2.748	0
32	20219	2.749	0
32	20225	2.75	0
32	20235	2.751	0
32	20241	2.752	0
32	20247	2.753	0
32	20255	2.754	0
32	20263	2.755	0
32	20269	2.756	0
32	20279	2.757	0
32	20285	2.758	0
32	20291	2.759	0
32	20299	2.76	0
32	20307	2.761	0
32	20313	2.762	0
32	20323	2.763	0
32	20329	2.764	0
32	20335	2.765	0
32	20343	2.766	0
32	20351	2.767	0
32	20357	2.768	0
32	20367	2.769	0
32	20373	2.77	0
32	20379	2.771	0
32	20387	2.772	0
32	20395	2.773	0
32	20401	2.774	0
32	20411	2.775	0
32	20417	2.776	0
32	20423	2.777	0
32	20431	2.778	0
32	20439	2.779	0
32	20445	2.78	0
32	20455	2.781	0
32	20461	2.782	0
32	20467	2.783	0
32	20475	2.784	0
32	20483	2.785	0
32	20489	2.786	0
32	20499	2.787	0
32	20505	2.788	0
32	20511	2.789	0
32	20519	2.79	0
32	20527	2.791	0
32	20533	2.792	0
32	20543	2.793	0
32	20549	2.794	0
32	20555	2.795	0
32	20563	2.796	0
32	20571	2.797	0
32	20577	2.798	0
32	20587	2.799	0
32	20595	2.8	0
32	20601	2.801	0
32	20609	2.802	0
32	20617	2.803	0
32	20623	2.804	0
32	20633	2.805	0
32	20639	2.806	0
32	20645	2.807	0
32	20653	2.808	0
32	20661	2.809	0
32	20667	2.81	0
32	20677	2.811	0
32	20683	2.812	0
32	20689	2.813	0
32	20697	2.814	0
32	20705	2.815	0
32	20711	2.816	0
32	20721	2.817	0
32	20727	2.818	0
32	20733	2.819	0
32	20741	2.82	0
32	20749	2.821	0
32	20755	2.822	0
32	20765	2.823	0
32	20771	2.824	0
32	20777	2.825	0
32	20785	2.826	0
32	20793	2.827	0
32	20799	2.828	0
32	20809	2.829	0
32	20815	2.83	0
32	20821	2.831	0
32	20829	2.832	0
32	20837	2.833	0
32	20843	2.834	0
32	20853	2.835	0
32	20859	2.836	0
32	20865	2.837	0
32	20873	2.838	0
32	20881	2.839	0
32	20887	2.84	0
32	20897	2.841	0
32	20903	2.842	0
32	20909	2.843	0
32	20917	2.844	0
32	20925	2.845	0
32	20931	2.846	0
32	20941	2.847	0
32	20947	2.848	0
32	20953	2.849	0
32	20961	2.85	0
32	20969	2.851	0
32	20975	2.852	0
32	20985	2.853	0
32	20991	2.854	0
32	20997	2.855	0
32	21005	2.856	0
32	21013	2.857	0
32	21019	2.858	0
32	21029	2.859	0
32	21035	2.86	0
32	21041	2.861	0
32	21049	2.862	0
32	21057	2.863	0
32	21063	2.864	0
32	21073	2.865	0
32	21079	2.866	0
32	21085	2.867	0
32	21093	2.868	0
32	21101	2.869	0
32	21107	2.87	0
32	21117	2.871	0
32	21123	2.872	0
32	21129	2.873	0
32	21137	2.874	0
32	21145	2.875	0
32	21151	2.876	0
32	21161	2.877	0
32	21167	2.878	0
32	21173	2.879	0
32	21181	2.88	0
32	21189	2.881	0
32	21195	2.882	0
32	21205	2.883	0
32	21211	2.884	0
32	21217	2.885	0
32	21225	2.886	0
32	21233	2.887	0
32	21239	2.888	0
32	21249	2.889	0
32	21255	2.89	0
32	21261	2.891	0
32	21269	2.892	0
32	21277	2.893	0
32	21283	2.894	0
32	21293	2.895	0
32	21299	2.896	0
32	21305	2.897	0
32	21313	2.898	0
32	21321	2.899	0
32	21329	2.9	0
32	21339	2.901	0
32	21345	2.902	0
32	21351	2.903	0
32	21359	2.904	0
32	21367	2.905	0
32	21373	2.906	0
32	21383	2.907	0
32	21389	2.908	0
32	21395	2.909	0
32	21403	2.91	0
32	21411	2.911	0
32	21417	2.912	0
32	21427	2.913	0
32	21433	2.914	0
32	21439	2.915	0
32	21447	2.916	0
32	21455	2.917	0
32	21461	2.918	0
32	21471	2.919	0
32	21477	2.92	0
32	21483	2.921	0
32	21491	2.922	0
32	21499	2.923	0
32	21505	2.924	0
32	21515	2.925	0
32	21521	2.926	0
32	21527	2.927	0
32	21535	2.928	0
32	21543	2.929	0
32	21549	2.93	0
32	21559	2.931	0
32	21565	2.932	0
32	21571	2.933	0
32	21579	2.934	0
32	21587	2.935	0
32	21593	2.936	0
32	21603	2.937	0
32	21609	2.938	0
32	21615	2.939	0
32	21623	2.94	0
32	21631	2.941	0
32	21637	2.942	0
32	21647	2.943	0
32	21653	2.944	0
32	21659	2.945	0
32	21667	2.946	0
32	21675	2.947	0
32	21681	2.948	0
32	21691	2.949	0
32	21697	2.95	0
32	21703	2.951	0
32	21711	2.952	0
32	21719	2.953	0
32	21725	2.954	0
32	21735	2.955	0
32	21741	2.956	0
32	21747	2.957	0
32	21755	2.958	0
32	21763	2.959	0
32	21769	2.96	0
32	21779	2.961	0
32	21785	2.962	0
32	21791	2.963	0
32	21799	2.964	0
32	21807	2.965	0
32	21813	2.966	0
32	21823	2.967	0
32	21829	2.968	0
32	21835	2.969	0
32	21843	2.97	0
32	21851	2.971	0
32	21857	2.972	0
32	21867	2.973	0
32	21873	2.974	0
32	21879	2.975	0
32	21887	2.976	0
32	21895	2.977	0
32	21901	2.978	0
32	21911	2.979	0
32	21917	2.98	0
32	21923	2.981	0
32	21931	2.982	0
32	21939	2.983	0
32	21945	2.984	0
32	21955	2.985	0
32	21961	2.986	0
32	21967	2.987	0
32	21975	2.988	0
32	21983	2.989	0
32	21989	2.99	0
32	21999	2.991	0
32	22005	2.992	0
32	22011	2.993	0
32	22019	2.994	0
32	22027	2.995	0
32	22033	2.996	0
32	22043	2.997	0
32	22049	2.998	0
32	22055	2.999	0
32	22065	3	0
32	22073	3.001	0
32	22079	3.002	0
32	22089	3.003	0
32	22095	3.004	0
32	22101	3.005	0
32	22109	3.006	0
32	22117	3.007	0
32	22123	3.008	0
32	22133	3.009	0
32	22139	3.01	0
32	22145	3.011	0
32	22153	3.012	0
32	22161	3.013	0
32	22167	3.014	0
32	22177	3.015	0
32	22183	3.016	0
32	22189	3.017	0
32	22197	3.018	0
32	22205	3.019	0
32	22211	3.02	0
32	22221	3.021	0
32	22227	3.022	0
32	22233	3.023	0
32	22241	3.024	0
32	22249	3.025	0
32	22255	3.026	0
32	22265	3.027	0
32	22271	3.028	0
32	22277	3.029	0
32	22285	3.03	0
32	22293	3.031	0
32	22299	3.032	0
32	22309	3.033	0
32	22315	3.034	0
32	22321	3.035	0
32	22329	3.036	0
32	22337	3.037	0
32	22343	3.038	0
32	22353	3.039	0
32	22359	3.04	0
32	22365	3.041	0
32	22373	3.042	0
32	22381	3.043	0
32	22387	3.044	0
32	22397	3.045	0
32	22403	3.046	0
32	22409	3.047	0
32	22417	3.048	0
32	22425	3.049	0
32	22432	3.05	0
32	22442	3.051	0
32	22448	3.052	0
32	22454	3.053	0
32	22462	3.054	0
32	22470	3.055	0
32	22476	3.056	0
32	22486	3.057	0
32	22492	3.058	0
32	22498	3.059	0
32	22506	3.06	0
32	22514	3.061	0
32	22520	3.062	0
32	22530	3.063	0
32	22536	3.064	0
32	22542	3.065	0
32	22550	3.066	0
32	22558	3.067	0
32	22564	3.068	0
32	22574	3.069	0
32	22580	3.07	0
32	22586	3.071	0
32	22594	3.072	0
32	22602	3.073	0
32	22608	3.074	0
32	22618	3.075	0
32	22624	3.076	0
32	22630	3.077	0
32	22638	3.078	0
32	22646	3.079	0
32	22652	3.08	0
32	22662	3.081	0
32	22668	3.082	0
32	22674	3.083	0
32	22682	3.084	0
32	22690	3.085	0
32	22696	3.086	0
32	22706	3.087	0
32	22712	3.088	0
32	22718	3.089	0
32	22726	3.09	0
32	22734	3.091	0
32	22740	3.092	0
32	22750	3.093	0
32	22756	3.094	0
32	22762	3.095	0
32	22770	3.096	0
32	22778	3.097	0
32	22784	3.098	0
32	22794	3.099	0
32	22802	3.1	0
32	22808	3.101	0
32	22816	3.102	0
32	22824	3.103	0
32	22830	3.104	0
32	22840	3.105	0
32	22846	3.106	0
32	22852	3.107	0
32	22860	3.108	0
32	22868	3.109	0
32	22874	3.11	0
32	22884	3.111	0
32	22890	3.112	0
32	22896	3.113	0
32	22904	3.114	0
32	22912	3.115	0
32	22918	3.116	0
32	22928	3.117	0
32	22934	3.118	0
32	22940	3.119	0
32	22948	3.12	0
32	22956	3.121	0
32	22962	3.122	0
32	22972	3.123	0
32	22978	3.124	0
32	22984	3.125	0
32	22992	3.126	0
32	23000	3.127	0
32	23006	3.128	0
32	23016	3.129	0
32	23022	3.13	0
32	23028	3.131	0
32	23036	3.132	0
32	23044	3.133	0
32	23050	3.134	0
32	23060	3.135	0
32	23066	3.136	0
32	23072	3.137	0
32	23080	3.138	0
32	23088	3.139	0
32	23094	3.14	0
32	23104	3.141	0
32	23110	3.142	0
32	23116	3.143	0
32	23124	3.144	0
32	23132	3.145	0
32	23138	3.146	0
32	23148	3.147	0
32	23154	3.148	0
32	23160	3.149	0
32	23168	3.15	0
32	23176	3.151	0
32	23182	3.152	0
32	23192	3.153	0
32	23198	3.154	0
32	23204	3.155	0
32	23212	3.156	0
32	23220	3.157	0
32	23226	3.158	0
32	23236	3.159	0
32	23242	3.16	0
32	23248	3.161	0
32	23256	3.162	0
32	23264	3.163	0
32	23270	3.164	0
32	23280	3.165	0
32	23286	3.166	0
32	23292	3.167	0
32	23300	3.168	0
32	23308	3.169	0
32	23314	3.17	0
32	23324	3.171	0
32	23330	3.172	0
32	23336	3.173	0
32	23344	3.174	0
32	23352	3.175	0
32	23358	3.176	0
32	23368	3.177	0
32	23374	3.178	0
32	23380	3.179	0
32	23388	3.18	0
32	23396	3.181	0
32	23402	3.182	0
32	23412	3.183	0
32	23418	3.184	0
32	23424	3.185	0
32	23432	3.186	0
32	23440	3.187	0
32	23446	3.188	0
32	23456	3.189	0
32	23462	3.19	0
32	23468	3.191	0
32	23476	3.192	0
32	23484	3.193	0
32	23490	3.194	0
32	23500	3.195	0
32	23506	3.196	0
32	23512	3.197	0
32	23520	3.198	0
32	23528	3.199	0
32	23536	3.2	0
32	23546	3.201	0
32	23552	3.202	0
32	23558	3.203	0
32	23566	3.204	0
32	23574	3.205	0
32	23580	3.206	0
32	23590	3.207	0
32	23596	3.208	0
32	23602	3.209	0
32	23610	3.21	0
32	23618	3.211	0
32	23624	3.212	0
32	23634	3.213	0
32	23640	3.214	0
32	23646	3.215	0
32	23654	3.216	0
32	23662	3.217	0
32	23668	3.218	0
32	23678	3.219	0
32	23684	3.22	0
32	23690	3.221	0
32	23698	3.222	0
32	23706	3.223	0
32	23712	3.224	0
32	23722	3.225	0
32	23728	3.226	0
32	23734	3.227	0
32	23742	3.228	0
32	23750	3.229	0
32	23756	3.23	0
32	23766	3.231	0
32	23772	3.232	0
32	23778	3.233	0
32	23786	3.234	0
32	23794	3.235	0
32	23800	3.236	0
32	23810	3.237	0
32	23816	3.238	0
32	23822	3.239	0
32	23830	3.24	0
32	23838	3.241	0
32	23844	3.242	0
32	23854	3.243	0
32	23860	3.244	0
32	23866	3.245	0
32	23874	3.246	0
32	23882	3.247	0
32	23888	3.248	0
32	23898	3.249	0
32	23904	3.25	0
32	23910	3.251	0
32	23918	3.252	0
32	23926	3.253	0
32	23932	3.254	0
32	23942	3.255	0
32	23948	3.256	0
32	23954	3.257	0
32	23962	3.258	0
32	23970	3.259	0
32	23976	3.26	0
32	23986	3.261	0
32	23992	3.262	0
32	23998	3.263	0
32	24006	3.264	0
32	24014	3.265	0
32	24020	3.266	0
32	24030	3.267	0
32	24036	3.268	0
32	24042	3.269	0
32	24050	3.27	0
32	24058	3.271	0
32	24064	3.272	0
32	24074	3.273	0
32	24080	3.274	0
32	24086	3.275	0
32	24094	3.276	0
32	24102	3.277	0
32	24108	3.278	0
32	24118	3.279	0
32	24124	3.28	0
32	24130	3.281	0
32	24138	3.282	0
32	24146	3.283	0
32	24152	3.284	0
32	24162	3.285	0
32	24168	3.286	0
32	24174	3.287	0
32	24182	3.288	0
32	24190	3.289	0
32	24196	3.29	0
32	24206	3.291	0
32	24212	3.292	0
32	24218	3.293	0
32	24226	3.294	0
32	24234	3.295	0
32	24240	3.296	0
32	24250	3.297	0
32	24256	3.298	0
32	24262	3.299	0
32	24272	3.3	0
32	24280	3.301	0
32	24286	3.302	0
32	24296	3.303	0
32	24302	3.304	0
32	24308	3.305	0
32	24316	3.306	0
32	24324	3.307	0
32	24330	3.308	0
32	24340	3.309	0
32	24346	3.31	0
32	24352	3.311	0
32	24360	3.312	0
32	24368	3.313	0
32	24374	3.314	0
32	24384	3.315	0
32	24390	3.316	0
32	24396	3.317	0
32	24404	3.318	0
32	24412	3.319	0
32	24418	3.32	0
32	24428	3.321	0
32	24434	3.322	0
32	24440	3.323	0
32	24448	3.324	0
32	24456	3.325	0
32	24462	3.326	0
32	24472	3.327	0
32	24478	3.328	0
32	24484	3.329	0
32	24492	3.33	0
32	24500	3.331	0
32	24506	3.332	0
32	24516	3.333	0
32	24522	3.334	0
32	24528	3.335	0
32	24536	3.336	0
32	24544	3.337	0
32	24550	3.338	0
32	24560	3.339	0
32	24566	3.34	0
32	24572	3.341	0
32	24580	3.342	0
32	24588	3.343	0
32	24594	3.344	0
32	24604	3.345	0
32	24610	3.346	0
32	24616	3.347	0
32	24624	3.348	0
32	24632	3.349	0
32	24638	3.35	0
32	24648	3.351	0
32	24654	3.352	0
32	24660	3.353	0
32	24668	3.354	0
32	24676	3.355	0
32	24682	3.356	0
32	24692	3.357	0
32	24698	3.358	0
32	24704	3.359	0
32	24712	3.36	0
32	24720	3.361	0
32	24726	3.362	0
32	24736	3.363	0
32	24742	3.364	0
32	24748	3.365	0
32	24756	3.366	0
32	24764	3.367	0
32	24770	3.368	0
32	24780	3.369	0
32	24786	3.37	0
32	24792	3.371	0
32	24800	3.372	0
32	24808	3.373	0
32	24814	3.374	0
32	24824	3.375	0
32	24830	3.376	0
32	24836	3.377	0
32	24844	3.378	0
32	24852	3.379	0
32	24858	3.38	0
32	24868	3.381	0
32	24874	3.382	0
32	24880	3.383	0
32	24888	3.384	0
32	24896	3.385	0
32	24902	3.386	0
32	24912	3.387	0
32	24918	3.388	0
32	24924	3.389	0
32	24932	3.39	0
32	24940	3.391	0
32	24946	3.392	0
32	24956	3.393	0
32	24962	3.394	0
32	24968	3.395	0
32	24976	3.396	0
32	24984	3.397	0
32	24990	3.398	0
32	25000	3.399	0
32	25008	3.4	0
32	25014	3.401	0
32	25022	3.402	0
32	25030	3.403	0
32	25036	3.404	0
32	25046	3.405	0
32	25052	3.406	0
32	25058	3.407	0
32	25066	3.408	0
32	25074	3.409	0
32	25080	3.41	0
32	25090	3.411	0
32	25096	3.412	0
32	25102	3.413	0
32	25110	3.414	0
32	25118	3.415	0
32	25124	3.416	0
32	25134	3.417	0
32	25140	3.418	0
32	25146	3.419	0
32	25154	3.42	0
32	25162	3.421	0
32	25168	3.422	0
32	25178	3.423	0
32	25184	3.424	0
32	25190	3.425	0
32	25198	3.426	0
32	25206	3.427	0
32	25212	3.428	0
32	25222	3.429	0
32	25228	3.43	0
32	25234	3.431	0
32	25242	3.432	0
32	25250	3.433	0
32	25256	3.434	0
32	25266	3.435	0
32	25272	3.436	0
32	25278	3.437	0
32	25286	3.438	0
32	25294	3.439	0
32	25300	3.44	0
32	25310	3.441	0
32	25316	3.442	0
32	25322	3.443	0
32	25330	3.444	0
32	25338	3.445	0
32	25344	3.446	0
32	25354	3.447	0
32	25360	3.448	0
32	25366	3.449	0
32	25374	3.45	0
32	25382	3.451	0
32	25388	3.452	0
32	25398	3.453	0
32	25404	3.454	0
32	25410	3.455	0
32	25418	3.456	0
32	25426	3.457	0
32	25432	3.458	0
32	25442	3.459	0
32	25448	3.46	0
32	25454	3.461	0
32	25462	3.462	0
32	25470	3.463	0
32	25476	3.464	0
32	25486	3.465	0
32	25492	3.466	0
32	25498	3.467	0
32	25506	3.468	0
32	25514	3.469	0
32	25520	3.47	0
32	25530	3.471	0
32	25536	3.472	0
32	25542	3.473	0
32	25550	3.474	0
32	25558	3.475	0
32	25564	3.476	0
32	25574	3.477	0
32	25580	3.478	0
32	25586	3.479	0
32	25594	3.48	0
32	25602	3.481	0
32	25608	3.482	0
32	25618	3.483	0
32	25624	3.484	0
32	25630	3.485	0
32	25638	3.486	0
32	25646	3.487	0
32	25652	3.488	0
32	25662	3.489	0
32	25668	3.49	0
32	25674	3.491	0
32	25682	3.492	0
32	25690	3.493	0
32	25696	3.494	0
32	25706	3.495	0
32	25712	3.496	0
32	25718	3.497	0
32	25726	3.498	0
32	25734	3.499	0
32	25742	3.5	0
32	25752	3.501	0
32	25758	3.502	0
32	25764	3.503	0
32	25772	3.504	0
32	25780	3.505	0
32	25786	3.506	0
32	25796	3.507	0
32	25802	3.508	0
32	25808	3.509	0
32	25816	3.51	0
32	25824	3.511	0
32	25830	3.512	0
32	25840	3.513	0
32	25846	3.514	0
32	25852	3.515	0
32	25860	3.516	0
32	25868	3.517	0
32	25874	3.518	0
32	25884	3.519	0
32	25890	3.52	0
32	25896	3.521	0
32	25904	3.522	0
32	25912	3.523	0
32	25918	3.524	0
32	25928	3.525	0
32	25934	3.526	0
32	25940	3.527	0
32	25948	3.528	0
32	25956	3.529	0
32	25962	3.53	0
32	25972	3.531	0
32	25978	3.532	0
32	25984	3.533	0
32	25992	3.534	0
32	26000	3.535	0
32	26006	3.536	0
32	26016	3.537	0
32	26022	3.538	0
32	26028	3.539	0
32	26036	3.54	0
32	26044	3.541	0
32	26050	3.542	0
32	26060	3.543	0
32	26066	3.544	0
32	26072	3.545	0
32	26080	3.546	0
32	26088	3.547	0
32	26094	3.548	0
32	26104	3.549	0
32	26110	3.55	0
32	26116	3.551	0
32	26124	3.552	0
32	26132	3.553	0
32	26138	3.554	0
32	26148	3.555	0
32	26154	3.556	0
32	26160	3.557	0
32	26168	3.558	0
32	26176	3.559	0
32	26182	3.56	0
32	26192	3.561	0
32	26198	3.562	0
32	26204	3.563	0
32	26212	3.564	0
32	26220	3.565	0
32	26226	3.566	0
32	26236	3.567	0
32	26242	3.568	0
32	26248	3.569	0
32	26256	3.57	0
32	26264	3.571	0
32	26270	3.572	0
32	26280	3.573	0
32	26286	3.574	0
32	26292	3.575	0
32	26300	3.576	0
32	26308	3.577	0
32	26314	3.578	0
32	26324	3.579	0
32	26330	3.58	0
32	26336	3.581	0
32	26344	3.582	0
32	26352	3.583	0
32	26358	3.584	0
32	26368	3.585	0
32	26374	3.586	0
32	26380	3.587	0
32	26388	3.588	0
32	26396	3.589	0
32	26402	3.59	0
32	26412	3.591	0
32	26418	3.592	0
32	26424	3.593	0
32	26432	3.594	0
32	26440	3.595	0
32	26446	3.596	0
32	26456	3.597	0
32	26462	3.598	0
32	26468	3.599	0
32	26478	3.6	0
32	26486	3.601	0
32	26492	3.602	0
32	26502	3.603	0
32	26508	3.604	0
32	26514	3.605	0
32	26522	3.606	0
32	26530	3.607	0
32	26536	3.608	0
32	26546	3.609	0
32	26552	3.61	0
32	26558	3.611	0
32	26566	3.612	0
32	26574	3.613	0
32	26580	3.614	0
32	26590	3.615	0
32	26596	3.616	0
32	26602	3.617	0
32	26610	3.618	0
32	26618	3.619	0
32	26624	3.62	0
32	26634	3.621	0
32	26640	3.622	0
32	26646	3.623	0
32	26654	3.624	0
32	26662	3.625	0
32	26668	3.626	0
32	26678	3.627	0
32	26684	3.628	0
32	26690	3.629	0
32	26698	3.63	0
32	26706	3.631	0
32	26712	3.632	0
32	26722	3.633	0
32	26728	3.634	0
32	26734	3.635	0
32	26742	3.636	0
32	26750	3.637	0
32	26756	3.638	0
32	26766	3.639	0
32	26772	3.64	0
32	26778	3.641	0
32	26786	3.642	0
32	26794	3.643	0
32	26800	3.644	0
32	26810	3.645	0
32	26816	3.646	0
32	26822	3.647	0
32	26830	3.648	0
32	26838	3.649	0
32	26844	3.65	0
32	26854	3.651	0
32	26860	3.652	0
32	26866	3.653	0
32	26874	3.654	0
32	26882	3.655	0
32	26888	3.656	0
32	26898	3.657	0
32	26904	3.658	0
32	26910	3.659	0
32	26918	3.66	0
32	26926	3.661	0
32	26932	3.662	0
32	26942	3.663	0
32	26948	3.664	0
32	26954	3.665	0
32	26962	3.666	0
32	26970	3.667	0
32	26976	3.668	0
32	26986	3.669	0
32	26992	3.67	0
32	26998	3.671	0
32	27006	3.672	0
32	27014	3.673	0
32	27020	3.674	0
32	27030	3.675	0
32	27036	3.676	0
32	27042	3.677	0
32	27050	3.678	0
32	27058	3.679	0
32	27064	3.68	0
32	27074	3.681	0
32	27080	3.682	0
32	27086	3.683	0
32	27094	3.684	0
32	27102	3.685	0
32	27108	3.686	0
32	27118	3.687	0
32	27124	3.688	0
32	27130	3.689	0
32	27138	3.69	0
32	27146	3.691	0
32	27152	3.692	0
32	27162	3.693	0
32	27168	3.694	0
32	27174	3.695	0
32	27182	3.696	0
32	27190	3.697	0
32	27196	3.698	0
32	27206	3.699	0
32	27214	3.7	0
32	27220	3.701	0
32	27228	3.702	0
32	27236	3.703	0
32	27242	3.704	0
32	27252	3.705	0
32	27258	3.706	0
32	27264	3.707	0
32	27272	3.708	0
32	27280	3.709	0
32	27286	3.71	0
32	27296	3.711	0
32	27302	3.712	0
32	27308	3.713	0
32	27316	3.714	0
32	27324	3.715	0
32	27330	3.716	0
32	27340	3.717	0
32	27346	3.718	0
32	27352	3.719	0
32	27360	3.72	0
32	27368	3.721	0
32	27374	3.722	0
32	27384	3.723	0
32	27390	3.724	0
32	27396	3.725	0
32	27404	3.726	0
32	27412	3.727	0
32	27418	3.728	0
32	27428	3.729	0
32	27434	3.73	0
32	27440	3.731	0
32	27448	3.732	0
32	27456	3.733	0
32	27462	3.734	0
32	27472	3.735	0
32	27478	3.736	0
32	27484	3.737	0
32	27492	3.738	0
32	27500	3.739	0
32	27506	3.74	0
32	27516	3.741	0
32	27522	3.742	0
32	27528	3.743	0
32	27536	3.744	0
32	27544	3.745	0
32	27550	3.746	0
32	27560	3.747	0
32	27566	3.748	0
32	27572	3.749	0
32	27580	3.75	0
32	27588	3.751	0
32	27594	3.752	0
32	27604	3.753	0
32	27610	3.754	0
32	27616	3.755	0
32	27624	3.756	0
32	27632	3.757	0
32	27638	3.758	0
32	27648	3.759	0
32	27654	3.76	0
32	27660	3.761	0
32	27668	3.762	0
32	27676	3.763	0
32	27682	3.764	0
32	27692	3.765	0
32	27698	3.766	0
32	27704	3.767	0
32	27712	3.768	0
32	27720	3.769	0
32	27726	3.77	0
32	27736	3.771	0
32	27742	3.772	0
32	27748	3.773	0
32	27756	3.774	0
32	27764	3.775	0
32	27770	3.776	0
32	27780	3.777	0
32	27786	3.778	0
32	27792	3.779	0
32	27800	3.78	0
32	27808	3.781	0
32	27814	3.782	0
32	27824	3.783	0
32	27830	3.784	0
32	27836	3.785	0
32	27844	3.786	0
32	27852	3.787	0
32	27858	3.788	0
32	27868	3.789	0
32	27874	3.79	0
32	27880	3.791	0
32	27888	3.792	0
32	27896	3.793	0
32	27902	3.794	0
32	27912	3.795	0
32	27918	3.796	0
32	27924	3.797	0
32	27932	3.798	0
32	27940	3.799	0
32	27948	3.8	0
32	27958	3.801	0
32	27964	3.802	0
32	27970	3.803	0
32	27978	3.804	0
32	27986	3.805	0
32	27992	3.806	0
32	28002	3.807	0
32	28008	3.808	0
32	28014	3.809	0
32	28022	3.81	0
32	28030	3.811	0
32	28036	3.812	0
32	28046	3.813	0
32	28052	3.814	0
32	28058	3.815	0
32	28066	3.816	0
32	28074	3.817	0
32	28080	3.818	0
32	28090	3.819	0
32	28096	3.82	0
32	28102	3.821	0
32	28110	3.822	0
32	28118	3.823	0
32	28124	3.824	0
32	28134	3.825	0
32	28140	3.826	0
32	28146	3.827	0
32	28154	3.828	0
32	28162	3.829	0
32	28168	3.83	0
32	28178	3.831	0
32	28184	3.832	0
32	28190	3.833	0
32	28198	3.834	0
32	28206	3.835	0
32	28212	3.836	0
32	28222	3.837	0
32	28228	3.838	0
32	28234	3.839	0
32	28242	3.84	0
32	28250	3.841	0
32	28256	3.842	0
32	28266	3.843	0
32	28272	3.844	0
32	28278	3.845	0
32	28286	3.846	0
32	28294	3.847	0
32	28300	3.848	0
32	28310	3.849	0
32	28316	3.85	0
32	28322	3.851	0
32	28330	3.852	0
32	28338	3.853	0
32	28344	3.854	0
32	28354	3.855	0
32	28360	3.856	0
32	28366	3.857	0
32	28374	3.858	0
32	28382	3.859	0
32	28388	3.86	0
32	28398	3.861	0
32	28404	3.862	0
32	28410	3.863	0
32	28418	3.864	0
32	28426	3.865	0
32	28432	3.866	0
32	28442	3.867	0
32	28448	3.868	0
32	28454	3.869	0
32	28462	3.87	0
32	28470	3.871	0
32	28476	3.872	0
32	28486	3.873	0
32	28492	3.874	0
32	28498	3.875	0
32	28506	3.876	0
32	28514	3.877	0
32	28520	3.878	0
32	28530	3.879	0
32	28536	3.88	0
32	28542	3.881	0
32	28550	3.882	0
32	28558	3.883	0
32	28564	3.884	0
32	28574	3.885	0
32	28580	3.886	0
32	28586	3.887	0
32	28594	3.888	0
32	28602	3.889	0
32	28608	3.89	0
32	28618	3.891	0
32	28624	3.892	0
32	28630	3.893	0
32	28638	3.894	0
32	28646	3.895	0
32	28652	3.896	0
32	28662	3.897	0
32	28668	3.898	0
32	28674	3.899	0
32	28684	3.9	0
32	28692	3.901	0
32	28698	3.902	0
32	28708	3.903	0
32	28714	3.904	0
32	28720	3.905	0
32	28728	3.906	0
32	28736	3.907	0
32	28742	3.908	0
32	28752	3.909	0
32	28758	3.91	0
32	28764	3.911	0
32	28772	3.912	0
32	28780	3.913	0
32	28786	3.914	0
32	28796	3.915	0
32	28802	3.916	0
32	28808	3.917	0
32	28816	3.918	0
32	28824	3.919	0
32	28830	3.92	0
32	28840	3.921	0
32	28846	3.922	0
32	28852	3.923	0
32	28860	3.924	0
32	28868	3.925	0
32	28874	3.926	0
32	28884	3.927	0
32	28890	3.928	0
32	28896	3.929	0
32	28904	3.93	0
32	28912	3.931	0
32	28918	3.932	0
32	28928	3.933	0
32	28934	3.934	0
32	28940	3.935	0
32	28948	3.936	0
32	28956	3.937	0
32	28962	3.938	0
32	28972	3.939	0
32	28978	3.94	0
32	28984	3.941	0
32	28992	3.942	0
32	29000	3.943	0
32	29006	3.944	0
32	29016	3.945	0
32	29022	3.946	0
32	29028	3.947	0
32	29036	3.948	0
32	29044	3.949	0
32	29050	3.95	0
32	29060	3.951	0
32	29066	3.952	0
32	29072	3.953	0
32	29080	3.954	0
32	29088	3.955	0
32	29094	3.956	0
32	29104	3.957	0
32	29110	3.958	0
32	29116	3.959	0
32	29124	3.96	0
32	29132	3.961	0
32	29138	3.962	0
32	29148	3.963	0
32	29154	3.964	0
32	29160	3.965	0
32	29168	3.966	0
32	29176	3.967	0
32	29182	3.968	0
32	29192	3.969	0
32	29198	3.97	0
32	29204	3.971	0
32	29212	3.972	0
32	29220	3.973	0
32	29226	3.974	0
32	29236	3.975	0
32	29242	3.976	0
32	29248	3.977	0
32	29256	3.978	0
32	29264	3.979	0
32	29270	3.98	0
32	29280	3.981	0
32	29286	3.982	0
32	29292	3.983	0
32	29300	3.984	0
32	29308	3.985	0
32	29314	3.986	0
32	29324	3.987	0
32	29330	3.988	0
32	29336	3.989	0
32	29344	3.99	0
32	29352	3.991	0
32	29358	3.992	0
32	29368	3.993	0
32	29374	3.994	0
32	29380	3.995	0
32	29388	3.996	0
32	29396	3.997	0
32	29402	3.998	0
32	29412	3.999	0
32	29420	4	0
32	29426	4.001	0
32	29434	4.002	0
32	29442	4.003	0
32	29448	4.004	0
32	29458	4.005	0
32	29464	4.006	0
32	29470	4.007	0
32	29478	4.008	0
32	29486	4.009	0
32	29492	4.01	0
32	29502	4.011	0
32	29508	4.012	0
32	29514	4.013	0
32	29522	4.014	0
32	29530	4.015	0
32	29536	4.016	0
32	29546	4.017	0
32	29552	4.018	0
32	29558	4.019	0
32	29566	4.02	0
32	29574	4.021	0
32	29580	4.022	0
32	29590	4.023	0
32	29596	4.024	0
32	29602	4.025	0
32	29610	4.026	0
32	29618	4.027	0
32	29624	4.028	0
32	29634	4.029	0
32	29640	4.03	0
32	29646	4.031	0
32	29654	4.032	0
32	29662	4.033	0
32	29668	4.034	0
32	29678	4.035	0
32	29684	4.036	0
32	29690	4.037	0
32	29698	4.038	0
32	29706	4.039	0
32	29712	4.04	0
32	29722	4.041	0
32	29728	4.042	0
32	29734	4.043	0
32	29742	4.044	0
32	29750	4.045	0
32	29756	4.046	0
32	29766	4.047	0
32	29772	4.048	0
32	29778	4.049	0
32	29787	4.05	0
32	29795	4.051	0
32	29801	4.052	0
32	29811	4.053	0
32	29817	4.054	0
32	29823	4.055	0
32	29831	4.056	0
32	29839	4.057	0
32	29845	4.058	0
32	29855	4.059	0
32	29861	4.06	0
32	29867	4.061	0
32	29875	4.062	0
32	29883	4.063	0
32	29889	4.064	0
32	29899	4.065	0
32	29905	4.066	0
32	29911	4.067	0
32	29919	4.068	0
32	29927	4.069	0
32	29933	4.07	0
32	29943	4.071	0
32	29949	4.072	0
32	29955	4.073	0
32	29963	4.074	0
32	29971	4.075	0
32	29977	4.076	0
32	29987	4.077	0
32	29993	4.078	0
32	29999	4.079	0
32	30007	4.08	0
32	30015	4.081	0
32	30021	4.082	0
32	30031	4.083	0
32	30037	4.084	0
32	30043	4.085	0
32	30051	4.086	0
32	30059	4.087	0
32	30065	4.088	0
32	30075	4.089	0
32	30081	4.09	0
32	30087	4.091	0
32	30095	4.092	0
32	30103	4.093	0
32	30109	4.094	0
32	30119	4.095	0
32	30125	4.096	0
32	30131	4.097	0
32	30139	4.098	0
32	30147	4.099	0
32	30155	4.1	0
32	30165	4.101	0
32	30171	4.102	0
32	30177	4.103	0
32	30185	4.104	0
32	30193	4.105	0
32	30199	4.106	0
32	30209	4.107	0
32	30215	4.108	0
32	30221	4.109	0
32	30229	4.11	0
32	30237	4.111	0
32	30243	4.112	0
32	30253	4.113	0
32	30259	4.114	0
32	30265	4.115	0
32	30273	4.116	0
32	30281	4.117	0
32	30287	4.118	0
32	30297	4.119	0
32	30303	4.12	0
32	30309	4.121	0
32	30317	4.122	0
32	30325	4.123	0
32	30331	4.124	0
32	30341	4.125	0
32	30347	4.126	0
32	30353	4.127	0
32	30361	4.128	0
32	30369	4.129	0
32	30375	4.13	0
32	30385	4.131	0
32	30391	4.132	0
32	30397	4.133	0
32	30405	4.134	0
32	30413	4.135	0
32	30419	4.136	0
32	30429	4.137	0
32	30435	4.138	0
32	30441	4.139	0
32	30449	4.14	0
32	30457	4.141	0
32	30463	4.142	0
32	30473	4.143	0
32	30479	4.144	0
32	30485	4.145	0
32	30493	4.146	0
[...]
56	367728	29.9	0
56	367728	30	0
56	367728	30.1	0
56	367728	30.2	0
56	367728	30.3	0
56	367728	30.4	0
56	367728	30.5	0
56	367728	30.6	0
56	367728	30.7	0
56	367728	30.8	0
56	367728	30.9	0
56	367728	31	0
56	367728	31.1	0
56	367728	31.2	0
56	367728	31.3	0
56	367728	31.4	0
56	367728	31.5	0
56	367728	31.6	0
56	367728	31.7	0
56	367728	31.8	0
56	367728	31.9	0
56	367728	32	0
56	367728	32.1	0
56	367728	32.2	0
56	367728	32.3	0
56	367728	32.4	0
56	367728	32.5	0
56	367728	32.6	0
56	367728	32.7	0
56	367728	32.8	0
56	367728	32.9	0
56	367728	33	0
56	367728	33.1	0
56	367728	33.2	0
56	367728	33.3	0
56	367728	33.4	0
56	367728	33.5	0
56	367728	33.6	0
56	367728	33.7	0
56	367728	33.8	0
56	367728	33.9	0
56	367728	34	0
56	367728	34.1	0
56	367728	34.2	0
56	367728	34.3	0
56	367728	34.4	0
56	367728	34.5	0
56	367728	34.6	0
56	367728	34.7	0
56	367728	34.8	0
56	367728	34.9	0
56	367728	35	0
56	367728	35.1	0
56	367728	35.2	0
56	367728	35.3	0
56	367728	35.4	0
56	367728	35.5	0
56	367728	35.6	0
56	367728	35.7	0
56	367728	35.8	0
56	367728	35.9	0
56	367728	36	0
56	367728	36.1	0
56	367728	36.2	0
56	367728	36.3	0
56	367728	36.4	0
56	367728	36.5	0
56	367728	36.6	0
56	367728	36.7	0
56	367728	36.8	0
56	367728	36.9	0
56	367728	37	0
56	367728	37.1	0
56	367728	37.2	0
56	367728	37.3	0
56	367728	37.4	0
56	367728	37.5	0
56	367728	37.6	0
56	367728	37.7	0
56	367728	37.8	0
56	367728	37.9	0
56	367728	38	0
56	367728	38.1	0
56	367728	38.2	0
56	367728	38.3	0
56	367728	38.4	0
56	367728	38.5	0
56	367728	38.6	0
56	367728	38.7	0
56	367728	38.8	0
56	367728	38.9	0
56	367728	39	0
56	367728	39.1	0
56	367728	39.2	0
56	367728	39.3	0
56	367728	39.4	0
56	367728	39.5	0
56	367728	39.6	0
56	367728	39.7	0
56	367728	39.8	0
56	367728	39.9	0
56	367728	40	0
56	367728	40.1	0
56	367728	40.2	0
56	367728	40.3	0
56	367728	40.4	0
56	367728	40.5	0
56	367728	40.6	0
56	367728	40.7	0
56	367728	40.8	0
56	367728	40.9	0
56	367728	41	0
56	367728	41.1	0
56	367728	41.2	0
56	367728	41.3	0
56	367728	41.4	0
56	367728	41.5	0
56	367728	41.6	0
56	367728	41.7	0
56	367728	41.8	0
56	367728	41.9	0
56	367728	42	0
56	367728	42.1	0
56	367728	42.2	0
56	367728	42.3	0
56	367728	42.4	0
56	367728	42.5	0
56	367728	42.6	0
56	367728	42.7	0
56	367728	42.8	0
56	367728	42.9	0
56	367728	43	0
56	367728	43.1	0
56	367728	43.2	0
56	367728	43.3	0
56	367728	43.4	0
56	367728	43.5	0
56	367728	43.6	0
56	367728	43.7	0
56	367728	43.8	0
56	367728	43.9	0
56	367728	44	0
56	367728	44.1	0
56	367728	44.2	0
56	367728	44.3	0
56	367728	44.4	0
56	367728	44.5	0
56	367728	44.6	0
56	367728	44.7	0
56	367728	44.8	0
56	367728	44.9	0
56	367728	45	0
56	367728	45.1	0
56	367728	45.2	0
56	367728	45.3	0
56	367728	45.4	0
56	367728	45.5	0
56	367728	45.6	0
56	367728	45.7	0
56	367728	45.8	0
56	367728	45.9	0
56	367728	46	0
56	367728	46.1	0
56	367728	46.2	0
56	367728	46.3	0
56	367728	46.4	0
56	367728	46.5	0
56	367728	46.6	0
56	367728	46.7	0
56	367728	46.8	0
56	367728	46.9	0
56	367728	47	0
56	367728	47.1	0
56	367728	47.2	0
56	367728	47.3	0
56	367728	47.4	0
56	367728	47.5	0
56	367728	47.6	0
56	367728	47.7	0
56	367728	47.8	0
56	367728	47.9	0
56	367728	48	0
56	367728	48.1	0
56	367728	48.2	0
56	367728	48.3	0
56	367728	48.4	0
56	367728	48.5	0
56	367728	48.6	0
56	367728	48.7	0
56	367728	48.8	0
56	367728	48.9	0
56	367728	49	0
56	367728	49.1	0
56	367728	49.2	0
56	367728	49.3	0
56	367728	49.4	0
56	367728	49.5	0
56	367728	49.6	0
56	367728	49.7	0
56	367728	49.8	0
56	367728	49.9	0
56	367728	50	0
57	367728	0.1	0
57	367728	0.2	0
57	367728	0.3	0
57	367728	0.4	0
57	367728	0.5	0
57	367728	0.6	0
57	367728	0.7	0
57	367728	0.8	0
57	367728	0.9	0
57	367728	1	0
57	367728	1.1	0
57	367728	1.2	0
57	367728	1.3	0
57	367728	1.4	0
57	367728	1.5	0
57	367728	1.6	0
57	367728	1.7	0
57	367728	1.8	0
57	367728	1.9	0
57	367728	2	0
57	367728	2.1	0
57	367728	2.2	0
57	367728	2.3	0
57	367728	2.4	0
57	367728	2.5	0
57	367728	2.6	0
57	367728	2.7	0
57	367728	2.8	0
57	367728	2.9	0
57	367728	3	0
57	367728	3.1	0
57	367728	3.2	0
57	367728	3.3	0
57	367728	3.4	0
57	367728	3.5	0
57	367728	3.6	0
57	367728	3.7	0
57	367728	3.8	0
57	367728	3.9	0
57	367728	4	0
57	367728	4.1	0
57	367728	4.2	0
57	367728	4.3	0
57	367728	4.4	0
57	367728	4.5	0
57	367728	4.6	0
57	367728	4.7	0
57	367728	4.8	0
57	367728	4.9	0
57	367728	5	0
57	367728	5.1	0
57	367728	5.2	0
57	367728	5.3	0
57	367728	5.4	0
57	367728	5.5	0
57	367728	5.6	0
57	367728	5.7	0
57	367728	5.8	0
57	367728	5.9	0
57	367728	6	0
57	367728	6.1	0
57	367728	6.2	0
57	367728	6.3	0
57	367728	6.4	0
57	367728	6.5	0
57	367728	6.6	0
57	367728	6.7	0
57	367728	6.8	0
57	367728	6.9	0
57	367728	7	0
57	367728	7.1	0
57	367728	7.2	0
57	367728	7.3	0
57	367728	7.4	0
57	367728	7.5	0
57	367728	7.6	0
57	367728	7.7	0
57	367728	7.8	0
57	367728	7.9	0
57	367728	8	0
57	367728	8.1	0
57	367728	8.2	0
57	367728	8.3	0
57	367728	8.4	0
57	367728	8.5	0
57	367728	8.6	0
57	367728	8.7	0
57	367728	8.8	0
57	367728	8.9	0
57	367728	9	0
57	367728	9.1	0
57	367728	9.2	0
57	367728	9.3	0
57	367728	9.4	0
57	367728	9.5	0
57	367728	9.6	0
57	367728	9.7	0
57	367728	9.8	0
57	367728	9.9	0
57	367728	10	0
57	367728	10.1	0
57	367728	10.2	0
57	367728	10.3	0
57	367728	10.4	0
57	367728	10.5	0
57	367728	10.6	0
57	367728	10.7	0
57	367728	10.8	0
57	367728	10.9	0
57	367728	11	0
57	367728	11.1	0
57	367728	11.2	0
57	367728	11.3	0
57	367728	11.4	0
57	367728	11.5	0
57	367728	11.6	0
57	367728	11.7	0
57	367728	11.8	0
57	367728	11.9	0
57	367728	12	0
57	367728	12.1	0
57	367728	12.2	0
57	367728	12.3	0
57	367728	12.4	0
57	367728	12.5	0
57	367728	12.6	0
57	367728	12.7	0
57	367728	12.8	0
57	367728	12.9	0
57	367728	13	0
57	367728	13.1	0
57	367728	13.2	0
57	367728	13.3	0
57	367728	13.4	0
57	367728	13.5	0
57	367728	13.6	0
57	367728	13.7	0
57	367728	13.8	0
57	367728	13.9	0
57	367728	14	0
57	367728	14.1	0
57	367728	14.2	0
57	367728	14.3	0
57	367728	14.4	0
57	367728	14.5	0
57	367728	14.6	0
57	367728	14.7	0
57	367728	14.8	0
57	367728	14.9	0
57	367728	15	0
57	367728	15.1	0
57	367728	15.2	0
57	367728	15.3	0
57	367728	15.4	0
57	367728	15.5	0
57	367728	15.6	0
57	367728	15.7	0
57	367728	15.8	0
57	367728	15.9	0
57	367728	16	0
57	367728	16.1	0
57	367728	16.2	0
57	367728	16.3	0
57	367728	16.4	0
57	367728	16.5	0
57	367728	16.6	0
57	367728	16.7	0
57	367728	16.8	0
57	367728	16.9	0
57	367728	17	0
57	367728	17.1	0
57	367728	17.2	0
57	367728	17.3	0
57	367728	17.4	0
57	367728	17.5	0
57	367728	17.6	0
57	367728	17.7	0
57	367728	17.8	0
57	367728	17.9	0
57	367728	18	0
57	367728	18.1	0
57	367728	18.2	0
57	367728	18.3	0
57	367728	18.4	0
57	367728	18.5	0
57	367728	18.6	0
57	367728	18.7	0
57	367728	18.8	0
57	367728	18.9	0
57	367728	19	0
57	367728	19.1	0
57	367728	19.2	0
57	367728	19.3	0
57	367728	19.4	0
57	367728	19.5	0
57	367728	19.6	0
57	367728	19.7	0
57	367728	19.8	0
57	367728	19.9	0
57	367728	20	0
57	367728	20.1	0
57	367728	20.2	0
57	367728	20.3	0
57	367728	20.4	0
57	367728	20.5	0
57	367728	20.6	0
57	367728	20.7	0
57	367728	20.8	0
57	367728	20.9	0
57	367728	21	0
57	367728	21.1	0
57	367728	21.2	0
57	367728	21.3	0
57	367728	21.4	0
57	367728	21.5	0
57	367728	21.6	0
57	367728	21.7	0
57	367728	21.8	0
57	367728	21.9	0
57	367728	22	0
57	367728	22.1	0
57	367728	22.2	0
57	367728	22.3	0
57	367728	22.4	0
57	367728	22.5	0
57	367728	22.6	0
57	367728	22.7	0
57	367728	22.8	0
57	367728	22.9	0
57	367728	23	0
57	367728	23.1	0
57	367728	23.2	0
57	367728	23.3	0
57	367728	23.4	0
57	367728	23.5	0
57	367728	23.6	0
57	367728	23.7	0
57	367728	23.8	0
57	367728	23.9	0
57	367728	24	0
57	367728	24.1	0
57	367728	24.2	0
57	367728	24.3	0
57	367728	24.4	0
57	367728	24.5	0
57	367728	24.6	0
57	367728	24.7	0
57	367728	24.8	0
57	367728	24.9	0
57	367728	25	0
57	367728	25.1	0
57	367728	25.2	0
57	367728	25.3	0
57	367728	25.4	0
57	367728	25.5	0
57	367728	25.6	0
57	367728	25.7	0
57	367728	25.8	0
57	367728	25.9	0
57	367728	26	0
57	367728	26.1	0
57	367728	26.2	0
57	367728	26.3	0
57	367728	26.4	0
57	367728	26.5	0
57	367728	26.6	0
57	367728	26.7	0
57	367728	26.8	0
57	367728	26.9	0
57	367728	27	0
57	367728	27.1	0
57	367728	27.2	0
57	367728	27.3	0
57	367728	27.4	0
57	367728	27.5	0
57	367728	27.6	0
57	367728	27.7	0
57	367728	27.8	0
57	367728	27.9	0
57	367728	28	0
57	367728	28.1	0
57	367728	28.2	0
57	367728	28.3	0
57	367728	28.4	0
57	367728	28.5	0
57	367728	28.6	0
57	367728	28.7	0
57	367728	28.8	0
57	367728	28.9	0
57	367728	29	0
57	367728	29.1	0
57	367728	29.2	0
57	367728	29.3	0
57	367728	29.4	0
57	367728	29.5	0
57	367728	29.6	0
57	367728	29.7	0
57	367728	29.8	0
57	367728	29.9	0
57	367728	30	0
57	367728	30.1	0
57	367728	30.2	0
57	367728	30.3	0
57	367728	30.4	0
57	367728	30.5	0
57	367728	30.6	0
57	367728	30.7	0
57	367728	30.8	0
57	367728	30.9	0
57	367728	31	0
57	367728	31.1	0
57	367728	31.2	0
57	367728	31.3	0
57	367728	31.4	0
57	367728	31.5	0
57	367728	31.6	0
57	367728	31.7	0
57	367728	31.8	0
57	367728	31.9	0
57	367728	32	0
57	367728	32.1	0
57	367728	32.2	0
57	367728	32.3	0
57	367728	32.4	0
57	367728	32.5	0
57	367728	32.6	0
57	367728	32.7	0
57	367728	32.8	0
57	367728	32.9	0
57	367728	33	0
57	367728	33.1	0
57	367728	33.2	0
57	367728	33.3	0
57	367728	33.4	0
57	367728	33.5	0
57	367728	33.6	0
57	367728	33.7	0
57	367728	33.8	0
57	367728	33.9	0
57	367728	34	0
57	367728	34.1	0
57	367728	34.2	0
57	367728	34.3	0
57	367728	34.4	0
57	367728	34.5	0
57	367728	34.6	0
57	367728	34.7	0
57	367728	34.8	0
57	367728	34.9	0
57	367728	35	0
57	367728	35.1	0
57	367728	35.2	0
57	367728	35.3	0
57	367728	35.4	0
57	367728	35.5	0
57	367728	35.6	0
57	367728	35.7	0
57	367728	35.8	0
57	367728	35.9	0
57	367728	36	0
57	367728	36.1	0
57	367728	36.2	0
57	367728	36.3	0
57	367728	36.4	0
57	367728	36.5	0
57	367728	36.6	0
57	367728	36.7	0
57	367728	36.8	0
57	367728	36.9	0
57	367728	37	0
57	367728	37.1	0
57	367728	37.2	0
57	367728	37.3	0
57	367728	37.4	0
57	367728	37.5	0
57	367728	37.6	0
57	367728	37.7	0
57	367728	37.8	0
57	367728	37.9	0
57	367728	38	0
57	367728	38.1	0
57	367728	38.2	0
57	367728	38.3	0
57	367728	38.4	0
57	367728	38.5	0
57	367728	38.6	0
57	367728	38.7	0
57	367728	38.8	0
57	367728	38.9	0
57	367728	39	0
57	367728	39.1	0
57	367728	39.2	0
57	367728	39.3	0
57	367728	39.4	0
57	367728	39.5	0
57	367728	39.6	0
57	367728	39.7	0
57	367728	39.8	0
57	367728	39.9	0
57	367728	40	0
57	367728	40.1	0
57	367728	40.2	0
57	367728	40.3	0
57	367728	40.4	0
57	367728	40.5	0
57	367728	40.6	0
57	367728	40.7	0
57	367728	40.8	0
57	367728	40.9	0
57	367728	41	0
57	367728	41.1	0
57	367728	41.2	0
57	367728	41.3	0
57	367728	41.4	0
57	367728	41.5	0
57	367728	41.6	0
57	367728	41.7	0
57	367728	41.8	0
57	367728	41.9	0
57	367728	42	0
57	367728	42.1	0
57	367728	42.2	0
57	367728	42.3	0
57	367728	42.4	0
57	367728	42.5	0
57	367728	42.6	0
57	367728	42.7	0
57	367728	42.8	0
57	367728	42.9	0
57	367728	43	0
57	367728	43.1	0
57	367728	43.2	0
57	367728	43.3	0
57	367728	43.4	0
57	367728	43.5	0
57	367728	43.6	0
57	367728	43.7	0
57	367728	43.8	0
57	367728	43.9	0
57	367728	44	0
57	367728	44.1	0
57	367728	44.2	0
57	367728	44.3	0
57	367728	44.4	0
57	367728	44.5	0
57	367728	44.6	0
57	367728	44.7	0
57	367728	44.8	0
57	367728	44.9	0
57	367728	45	0
57	367728	45.1	0
57	367728	45.2	0
57	367728	45.3	0
57	367728	45.4	0
57	367728	45.5	0
57	367728	45.6	0
57	367728	45.7	0
57	367728	45.8	0
57	367728	45.9	0
57	367728	46	0
57	367728	46.1	0
57	367728	46.2	0
57	367728	46.3	0
57	367728	46.4	0
57	367728	46.5	0
57	367728	46.6	0
57	367728	46.7	0
57	367728	46.8	0
57	367728	46.9	0
57	367728	47	0
57	367728	47.1	0
57	367728	47.2	0
57	367728	47.3	0
57	367728	47.4	0
57	367728	47.5	0
57	367728	47.6	0
57	367728	47.7	0
57	367728	47.8	0
57	367728	47.9	0
57	367728	48	0
57	367728	48.1	0
57	367728	48.2	0
57	367728	48.3	0
57	367728	48.4	0
57	367728	48.5	0
57	367728	48.6	0
57	367728	48.7	0
57	367728	48.8	0
57	367728	48.9	0
57	367728	49	0
57	367728	49.1	0
57	367728	49.2	0
57	367728	49.3	0
57	367728	49.4	0
57	367728	49.5	0
57	367728	49.6	0
57	367728	49.7	0
57	367728	49.8	0
57	367728	49.9	0
57	367728	50	0
58	367728	0.1	0
58	367728	0.2	0
58	367728	0.3	0
58	367728	0.4	0
58	367728	0.5	0
58	367728	0.6	0
58	367728	0.7	0
58	367728	0.8	0
58	367728	0.9	0
58	367728	1	0
58	367728	1.1	0
58	367728	1.2	0
58	367728	1.3	0
58	367728	1.4	0
58	367728	1.5	0
58	367728	1.6	0
58	367728	1.7	0
58	367728	1.8	0
58	367728	1.9	0
58	367728	2	0
58	367728	2.1	0
58	367728	2.2	0
58	367728	2.3	0
58	367728	2.4	0
58	367728	2.5	0
58	367728	2.6	0
58	367728	2.7	0
58	367728	2.8	0
58	367728	2.9	0
58	367728	3	0
58	367728	3.1	0
58	367728	3.2	0
58	367728	3.3	0
58	367728	3.4	0
58	367728	3.5	0
58	367728	3.6	0
58	367728	3.7	0
58	367728	3.8	0
58	367728	3.9	0
58	367728	4	0
58	367728	4.1	0
58	367728	4.2	0
58	367728	4.3	0
58	367728	4.4	0
58	367728	4.5	0
58	367728	4.6	0
58	367728	4.7	0
58	367728	4.8	0
58	367728	4.9	0
58	367728	5	0
58	367728	5.1	0
58	367728	5.2	0
58	367728	5.3	0
58	367728	5.4	0
58	367728	5.5	0
58	367728	5.6	0
58	367728	5.7	0
58	367728	5.8	0
58	367728	5.9	0
58	367728	6	0
58	367728	6.1	0
58	367728	6.2	0
58	367728	6.3	0
58	367728	6.4	0
58	367728	6.5	0
58	367728	6.6	0
58	367728	6.7	0
58	367728	6.8	0
58	367728	6.9	0
58	367728	7	0
58	367728	7.1	0
58	367728	7.2	0
58	367728	7.3	0
58	367728	7.4	0
58	367728	7.5	0
58	367728	7.6	0
58	367728	7.7	0
58	367728	7.8	0
58	367728	7.9	0
58	367728	8	0
58	367728	8.1	0
58	367728	8.2	0
58	367728	8.3	0
58	367728	8.4	0
58	367728	8.5	0
58	367728	8.6	0
58	367728	8.7	0
58	367728	8.8	0
58	367728	8.9	0
58	367728	9	0
58	367728	9.1	0
58	367728	9.2	0
58	367728	9.3	0
58	367728	9.4	0
58	367728	9.5	0
58	367728	9.6	0
58	367728	9.7	0
58	367728	9.8	0
58	367728	9.9	0
58	367728	10	0
58	367728	10.1	0
58	367728	10.2	0
58	367728	10.3	0
58	367728	10.4	0
58	367728	10.5	0
58	367728	10.6	0
58	367728	10.7	0
58	367728	10.8	0
58	367728	10.9	0
58	367728	11	0
58	367728	11.1	0
58	367728	11.2	0
58	367728	11.3	0
58	367728	11.4	0
58	367728	11.5	0
58	367728	11.6	0
58	367728	11.7	0
58	367728	11.8	0
58	367728	11.9	0
58	367728	12	0
58	367728	12.1	0
58	367728	12.2	0
58	367728	12.3	0
58	367728	12.4	0
58	367728	12.5	0
58	367728	12.6	0
58	367728	12.7	0
58	367728	12.8	0
58	367728	12.9	0
58	367728	13	0
58	367728	13.1	0
58	367728	13.2	0
58	367728	13.3	0
58	367728	13.4	0
58	367728	13.5	0
58	367728	13.6	0
58	367728	13.7	0
58	367728	13.8	0
58	367728	13.9	0
58	367728	14	0
58	367728	14.1	0
58	367728	14.2	0
58	367728	14.3	0
58	367728	14.4	0
58	367728	14.5	0
58	367728	14.6	0
58	367728	14.7	0
58	367728	14.8	0
58	367728	14.9	0
58	367728	15	0
58	367728	15.1	0
58	367728	15.2	0
58	367728	15.3	0
58	367728	15.4	0
58	367728	15.5	0
58	367728	15.6	0
58	367728	15.7	0
58	367728	15.8	0
58	367728	15.9	0
58	367728	16	0
58	367728	16.1	0
58	367728	16.2	0
58	367728	16.3	0
58	367728	16.4	0
58	367728	16.5	0
58	367728	16.6	0
58	367728	16.7	0
58	367728	16.8	0
58	367728	16.9	0
58	367728	17	0
58	367728	17.1	0
58	367728	17.2	0
58	367728	17.3	0
58	367728	17.4	0
58	367728	17.5	0
58	367728	17.6	0
58	367728	17.7	0
58	367728	17.8	0
58	367728	17.9	0
58	367728	18	0
58	367728	18.1	0
58	367728	18.2	0
58	367728	18.3	0
58	367728	18.4	0
58	367728	18.5	0
58	367728	18.6	0
58	367728	18.7	0
58	367728	18.8	0
58	367728	18.9	0
58	367728	19	0
58	367728	19.1	0
58	367728	19.2	0
58	367728	19.3	0
58	367728	19.4	0
58	367728	19.5	0
58	367728	19.6	0
58	367728	19.7	0
58	367728	19.8	0
58	367728	19.9	0
58	367728	20	0
58	367728	20.1	0
58	367728	20.2	0
58	367728	20.3	0
58	367728	20.4	0
58	367728	20.5	0
58	367728	20.6	0
58	367728	20.7	0
58	367728	20.8	0
58	367728	20.9	0
58	367728	21	0
58	367728	21.1	0
58	367728	21.2	0
58	367728	21.3	0
58	367728	21.4	0
58	367728	21.5	0
58	367728	21.6	0
58	367728	21.7	0
58	367728	21.8	0
58	367728	21.9	0
58	367728	22	0
58	367728	22.1	0
58	367728	22.2	0
58	367728	22.3	0
58	367728	22.4	0
58	367728	22.5	0
58	367728	22.6	0
58	367728	22.7	0
58	367728	22.8	0
58	367728	22.9	0
58	367728	23	0
58	367728	23.1	0
58	367728	23.2	0
58	367728	23.3	0
58	367728	23.4	0
58	367728	23.5	0
58	367728	23.6	0
58	367728	23.7	0
58	367728	23.8	0
58	367728	23.9	0
58	367728	24	0
58	367728	24.1	0
58	367728	24.2	0
58	367728	24.3	0
58	367728	24.4	0
58	367728	24.5	0
58	367728	24.6	0
58	367728	24.7	0
58	367728	24.8	0
58	367728	24.9	0
58	367728	25	0
58	367728	25.1	0
58	367728	25.2	0
58	367728	25.3	0
58	367728	25.4	0
58	367728	25.5	0
58	367728	25.6	0
58	367728	25.7	0
58	367728	25.8	0
58	367728	25.9	0
58	367728	26	0
58	367728	26.1	0
58	367728	26.2	0
58	367728	26.3	0
58	367728	26.4	0
58	367728	26.5	0
58	367728	26.6	0
58	367728	26.7	0
58	367728	26.8	0
58	367728	26.9	0
58	367728	27	0
58	367728	27.1	0
58	367728	27.2	0
58	367728	27.3	0
58	367728	27.4	0
58	367728	27.5	0
58	367728	27.6	0
58	367728	27.7	0
58	367728	27.8	0
58	367728	27.9	0
58	367728	28	0
58	367728	28.1	0
58	367728	28.2	0
58	367728	28.3	0
58	367728	28.4	0
58	367728	28.5	0
58	367728	28.6	0
58	367728	28.7	0
58	367728	28.8	0
58	367728	28.9	0
58	367728	29	0
58	367728	29.1	0
58	367728	29.2	0
58	367728	29.3	0
58	367728	29.4	0
58	367728	29.5	0
58	367728	29.6	0
58	367728	29.7	0
58	367728	29.8	0
58	367728	29.9	0
58	367728	30	0
58	367728	30.1	0
58	367728	30.2	0
58	367728	30.3	0
58	367728	30.4	0
58	367728	30.5	0
58	367728	30.6	0
58	367728	30.7	0
58	367728	30.8	0
58	367728	30.9	0
58	367728	31	0
58	367728	31.1	0
58	367728	31.2	0
58	367728	31.3	0
58	367728	31.4	0
58	367728	31.5	0
58	367728	31.6	0
58	367728	31.7	0
58	367728	31.8	0
58	367728	31.9	0
58	367728	32	0
58	367728	32.1	0
58	367728	32.2	0
58	367728	32.3	0
58	367728	32.4	0
58	367728	32.5	0
58	367728	32.6	0
58	367728	32.7	0
58	367728	32.8	0
58	367728	32.9	0
58	367728	33	0
58	367728	33.1	0
58	367728	33.2	0
58	367728	33.3	0
58	367728	33.4	0
58	367728	33.5	0
58	367728	33.6	0
58	367728	33.7	0
58	367728	33.8	0
58	367728	33.9	0
58	367728	34	0
58	367728	34.1	0
58	367728	34.2	0
58	367728	34.3	0
58	367728	34.4	0
58	367728	34.5	0
58	367728	34.6	0
58	367728	34.7	0
58	367728	34.8	0
58	367728	34.9	0
58	367728	35	0
58	367728	35.1	0
58	367728	35.2	0
58	367728	35.3	0
58	367728	35.4	0
58	367728	35.5	0
58	367728	35.6	0
58	367728	35.7	0
58	367728	35.8	0
58	367728	35.9	0
58	367728	36	0
58	367728	36.1	0
58	367728	36.2	0
58	367728	36.3	0
58	367728	36.4	0
58	367728	36.5	0
58	367728	36.6	0
58	367728	36.7	0
58	367728	36.8	0
58	367728	36.9	0
58	367728	37	0
58	367728	37.1	0
58	367728	37.2	0
58	367728	37.3	0
58	367728	37.4	0
58	367728	37.5	0
58	367728	37.6	0
58	367728	37.7	0
58	367728	37.8	0
58	367728	37.9	0
58	367728	38	0
58	367728	38.1	0
58	367728	38.2	0
58	367728	38.3	0
58	367728	38.4	0
58	367728	38.5	0
58	367728	38.6	0
58	367728	38.7	0
58	367728	38.8	0
58	367728	38.9	0
58	367728	39	0
58	367728	39.1	0
58	367728	39.2	0
58	367728	39.3	0
58	367728	39.4	0
58	367728	39.5	0
58	367728	39.6	0
58	367728	39.7	0
58	367728	39.8	0
58	367728	39.9	0
58	367728	40	0
58	367728	40.1	0
58	367728	40.2	0
58	367728	40.3	0
58	367728	40.4	0
58	367728	40.5	0
58	367728	40.6	0
58	367728	40.7	0
58	367728	40.8	0
58	367728	40.9	0
58	367728	41	0
58	367728	41.1	0
58	367728	41.2	0
58	367728	41.3	0
58	367728	41.4	0
58	367728	41.5	0
58	367728	41.6	0
58	367728	41.7	0
58	367728	41.8	0
58	367728	41.9	0
58	367728	42	0
58	367728	42.1	0
58	367728	42.2	0
58	367728	42.3	0
58	367728	42.4	0
58	367728	42.5	0
58	367728	42.6	0
58	367728	42.7	0
58	367728	42.8	0
58	367728	42.9	0
58	367728	43	0
58	367728	43.1	0
58	367728	43.2	0
58	367728	43.3	0
58	367728	43.4	0
58	367728	43.5	0
58	367728	43.6	0
58	367728	43.7	0
58	367728	43.8	0
58	367728	43.9	0
58	367728	44	0
58	367728	44.1	0
58	367728	44.2	0
58	367728	44.3	0
58	367728	44.4	0
58	367728	44.5	0
58	367728	44.6	0
58	367728	44.7	0
58	367728	44.8	0
58	367728	44.9	0
58	367728	45	0
58	367728	45.1	0
58	367728	45.2	0
58	367728	45.3	0
58	367728	45.4	0
58	367728	45.5	0
58	367728	45.6	0
58	367728	45.7	0
58	367728	45.8	0
58	367728	45.9	0
58	367728	46	0
58	367728	46.1	0
58	367728	46.2	0
58	367728	46.3	0
58	367728	46.4	0
58	367728	46.5	0
58	367728	46.6	0
58	367728	46.7	0
58	367728	46.8	0
58	367728	46.9	0
58	367728	47	0
58	367728	47.1	0
58	367728	47.2	0
58	367728	47.3	0
58	367728	47.4	0
58	367728	47.5	0
58	367728	47.6	0
58	367728	47.7	0
58	367728	47.8	0
58	367728	47.9	0
58	367728	48	0
58	367728	48.1	0
58	367728	48.2	0
58	367728	48.3	0
58	367728	48.4	0
58	367728	48.5	0
58	367728	48.6	0
58	367728	48.7	0
58	367728	48.8	0
58	367728	48.9	0
58	367728	49	0
58	367728	49.1	0
58	367728	49.2	0
58	367728	49.3	0
58	367728	49.4	0
58	367728	49.5	0
58	367728	49.6	0
58	367728	49.7	0
58	367728	49.8	0
58	367728	49.9	0
58	367728	50	0

