version 3
run D2DMulticast-0-20230210-17:51:55-900899
attr configname D2DMulticast
attr datetime 20230210-17:51:55
attr datetimef 20230210-175155
attr experiment D2DMulticast
attr inifile omnetpp.ini
attr iterationvars $cqi=7
attr iterationvarsd cqi=7
attr iterationvarsf cqi=7-
attr measurement $cqi=7
attr network simu5g.simulations.LTE.cars.Highway
attr processid 900899
attr repetition 0
attr replication #0
attr resultdir results
attr runnumber 0
attr seedset 0
itervar cqi 7
config image-path ../../../images:../../../../inet4.4/images:../../../../veins-veins-5.2/subprojects/veins_inet/images:../../../../veins-veins-5.2/images
config *.eNodeB*.nicType "\"LteNicEnbD2D\""
config *.car[*].nicType "\"LteNicUeD2D\""
config **.amcMode "\"D2D\""
config **.enableD2DCqiReporting false
config **.usePreconfiguredTxParams true
config **.d2dCqi 7
config *.car[*].numApps 1
config *.car[0..4].ipv4.configurator.mcastGroups "\"224.0.0.10\""
config *.car[0].app[*].typename AlertSender
config *.car[0].app[*].localPort 3088+ancestorIndex(0)
config *.car[0].app[*].startTime uniform(0s,0.02s)
config *.car[0].app[*].destAddress "\"224.0.0.10\""
config *.car[0].app[*].destPort 1000
config *.car[1..3].app[*].typename AlertReceiver
config *.car[1..3].app[*].localPort 1000
config *.car[4..7].ipv4.configurator.mcastGroups "\"224.0.0.11\""
config *.car[4].app[*].typename AlertSender
config *.car[4].app[*].localPort 3088+ancestorIndex(0)
config *.car[4].app[*].startTime uniform(0s,0.02s)
config *.car[4].app[*].destAddress "\"224.0.0.11\""
config *.car[4].app[*].destPort 1000
config *.car[5..7].app[*].typename AlertReceiver
config *.car[5..7].app[*].localPort 1000
config cmdenv-express-mode true
config cmdenv-autoflush true
config image-path ../../images
config network simu5g.simulations.LTE.cars.Highway
config debug-on-errors false
config print-undisposed false
config sim-time-limit 100s
config **.sctp.**.scalar-recording false
config **.sctp.**.vector-recording false
config **.routingRecorder.enabled false
config *.playgroundSizeX 20000m
config *.playgroundSizeY 20000m
config *.playgroundSizeZ 50m
config *.veinsManager.host "\"localhost\""
config *.veinsManager.moduleType "\"simu5g.nodes.cars.Car\""
config *.veinsManager.moduleName "\"car\""
config *.veinsManager.launchConfig "xmldoc(\"heterogeneous.launchd.xml\")"
config *.veinsManager.updateInterval 0.1s
config *.car[*].mobility.typename VeinsInetMobility
config *.configurator.config "xmldoc(\"./demo.xml\")"
config **.numBands 25
config **.ueTxPower 26
config **.eNodeBTxPower 46
config *.car[*].cellularNic.phy.dynamicCellAssociation true
config **.car[*].masterId 1
config **.car[*].macCellId 1
config **.eNodeB1.macCellId 1
config **.eNodeB1.macNodeId 1
config **.eNodeB2.macCellId 2
config **.eNodeB2.macNodeId 2
config *.car[*].cellularNic.phy.enableHandover true
config *.eNodeB*.cellularNic.phy.enableHandover true
config *.eNodeB*.cellularNic.phy.handoverLatency 50ms
config *.eNodeB*.cellInfo.broadcastMessageInterval 1s
config *.eNodeB*.numX2Apps 1
config *.eNodeB*.x2App[*].server.localPort "5000 + ancestorIndex(1)"
config *.eNodeB1.x2App[0].client.connectAddress "\"eNodeB2%x2ppp0\""
config *.eNodeB2.x2App[0].client.connectAddress "\"eNodeB1%x2ppp0\""
config **.sctp.nagleEnabled false
config **.sctp.enableHeartbeats false

vector 0 Highway.server.ppp[0].ppp transmissionState:vector ETV
attr interpolationmode sample-hold
attr recordingmode vector
attr source transmissionStateChanged
attr title "tx state"
vector 1 Highway.server.udp passedUpPk:vector(count) ETV
attr interpolationmode none
attr recordingmode vector(count)
attr source packetSentToUpper
attr title "packets passed up, count"
vector 2 Highway.server.udp droppedPkWrongPort:vector(count) ETV
attr interpolationmode none
attr recordingmode vector(count)
attr source packetDropReasonIsNoPortFound(packetDropped)
attr title "packets dropped (wrong port), count"
vector 3 Highway.server.udp droppedPkBadChecksum:vector(count) ETV
attr interpolationmode none
attr recordingmode vector(count)
attr source packetDropReasonIsIncorrectlyReceived(packetDropped)
attr title "packets dropped (checksum error), count"
vector 4 Highway.router.ppp[0].ppp transmissionState:vector ETV
attr interpolationmode sample-hold
attr recordingmode vector
attr source transmissionStateChanged
attr title "tx state"
vector 5 Highway.router.ppp[1].ppp transmissionState:vector ETV
attr interpolationmode sample-hold
attr recordingmode vector
attr source transmissionStateChanged
attr title "tx state"
vector 6 Highway.pgw.ppp[0].ppp transmissionState:vector ETV
attr interpolationmode sample-hold
attr recordingmode vector
attr source transmissionStateChanged
attr title "tx state"
vector 7 Highway.pgw.ppp[1].ppp transmissionState:vector ETV
attr interpolationmode sample-hold
attr recordingmode vector
attr source transmissionStateChanged
attr title "tx state"
vector 8 Highway.pgw.pppIf.ppp transmissionState:vector ETV
attr interpolationmode sample-hold
attr recordingmode vector
attr source transmissionStateChanged
attr title "tx state"
vector 9 Highway.pgw.udp passedUpPk:vector(count) ETV
attr interpolationmode none
attr recordingmode vector(count)
attr source packetSentToUpper
attr title "packets passed up, count"
vector 10 Highway.pgw.udp droppedPkWrongPort:vector(count) ETV
attr interpolationmode none
attr recordingmode vector(count)
attr source packetDropReasonIsNoPortFound(packetDropped)
attr title "packets dropped (wrong port), count"
vector 11 Highway.pgw.udp droppedPkBadChecksum:vector(count) ETV
attr interpolationmode none
attr recordingmode vector(count)
attr source packetDropReasonIsIncorrectlyReceived(packetDropped)
attr title "packets dropped (checksum error), count"
vector 12 Highway.eNodeB1.pppIf.ppp transmissionState:vector ETV
attr interpolationmode sample-hold
attr recordingmode vector
attr source transmissionStateChanged
attr title "tx state"
vector 13 Highway.eNodeB1.x2ppp[0].ppp transmissionState:vector ETV
attr interpolationmode sample-hold
attr recordingmode vector
attr source transmissionStateChanged
attr title "tx state"
vector 14 Highway.eNodeB1.pppMEHostIf.ppp transmissionState:vector ETV
attr interpolationmode sample-hold
attr recordingmode vector
attr source transmissionStateChanged
attr title "tx state"
vector 15 Highway.eNodeB1.udp passedUpPk:vector(count) ETV
attr interpolationmode none
attr recordingmode vector(count)
attr source packetSentToUpper
attr title "packets passed up, count"
vector 16 Highway.eNodeB1.udp droppedPkWrongPort:vector(count) ETV
attr interpolationmode none
attr recordingmode vector(count)
attr source packetDropReasonIsNoPortFound(packetDropped)
attr title "packets dropped (wrong port), count"
vector 17 Highway.eNodeB1.udp droppedPkBadChecksum:vector(count) ETV
attr interpolationmode none
attr recordingmode vector(count)
attr source packetDropReasonIsIncorrectlyReceived(packetDropped)
attr title "packets dropped (checksum error), count"
vector 18 Highway.eNodeB2.pppIf.ppp transmissionState:vector ETV
attr interpolationmode sample-hold
attr recordingmode vector
attr source transmissionStateChanged
attr title "tx state"
vector 19 Highway.eNodeB2.x2ppp[0].ppp transmissionState:vector ETV
attr interpolationmode sample-hold
attr recordingmode vector
attr source transmissionStateChanged
attr title "tx state"
vector 20 Highway.eNodeB2.pppMEHostIf.ppp transmissionState:vector ETV
attr interpolationmode sample-hold
attr recordingmode vector
attr source transmissionStateChanged
attr title "tx state"
vector 21 Highway.eNodeB2.udp passedUpPk:vector(count) ETV
attr interpolationmode none
attr recordingmode vector(count)
attr source packetSentToUpper
attr title "packets passed up, count"
vector 22 Highway.eNodeB2.udp droppedPkWrongPort:vector(count) ETV
attr interpolationmode none
attr recordingmode vector(count)
attr source packetDropReasonIsNoPortFound(packetDropped)
attr title "packets dropped (wrong port), count"
vector 23 Highway.eNodeB2.udp droppedPkBadChecksum:vector(count) ETV
attr interpolationmode none
attr recordingmode vector(count)
attr source packetDropReasonIsIncorrectlyReceived(packetDropped)
attr title "packets dropped (checksum error), count"
vector 24 Highway.eNodeB1.x2ppp[0].queue incomingPacketLengths:vector ETV
attr interpolationmode none
attr recordingmode vector
attr source packetLength(packetPushStarted)
attr title "incoming packet lengths"
attr unit b
vector 25 Highway.eNodeB1.x2ppp[0].queue queueingTime:vector ETV
attr interpolationmode none
attr recordingmode vector
attr source queueingTime(packetPulled)
attr title "queueing times"
attr unit s
vector 26 Highway.eNodeB1.x2ppp[0].queue outgoingPacketLengths:vector ETV
attr interpolationmode none
attr recordingmode vector
attr source packetLength(packetPulled)
attr title "outgoing packet lengths"
attr unit b
vector 27 Highway.eNodeB1.x2ppp[0].ppp txPk:vector(packetBytes) ETV
attr interpolationmode none
attr recordingmode vector(packetBytes)
attr source packetSentToLower
attr title "packets transmitted, packetBytes"
vector 28 Highway.eNodeB1.x2ppp[0].queue queueLength:vector ETV
attr autoWarmupFilter false
attr interpolationmode sample-hold
attr recordingmode vector
attr source "warmup(atomic(constant0(packetPushEnded) + count(packetPushStarted) - count(packetPulled) - count(packetRemoved) - count(packetDropped)))"
attr title "queue length"
attr unit pk
vector 29 Highway.eNodeB1.x2ppp[0].queue queueBitLength:vector ETV
attr autoWarmupFilter false
attr interpolationmode sample-hold
attr recordingmode vector
attr source "warmup(atomic(constant0(packetPushEnded) + sum(packetLength(packetPushStarted)) - sum(packetLength(packetPulled)) - sum(packetLength(packetRemoved)) - sum(packetLength(packetDropped))))"
attr title "queue bit length"
attr unit b
vector 30 Highway.eNodeB2.x2ppp[0].queue incomingPacketLengths:vector ETV
attr interpolationmode none
attr recordingmode vector
attr source packetLength(packetPushStarted)
attr title "incoming packet lengths"
attr unit b
vector 31 Highway.eNodeB2.x2ppp[0].queue queueingTime:vector ETV
attr interpolationmode none
attr recordingmode vector
attr source queueingTime(packetPulled)
attr title "queueing times"
attr unit s
vector 32 Highway.eNodeB2.x2ppp[0].queue outgoingPacketLengths:vector ETV
attr interpolationmode none
attr recordingmode vector
attr source packetLength(packetPulled)
attr title "outgoing packet lengths"
attr unit b
vector 33 Highway.eNodeB2.x2ppp[0].ppp txPk:vector(packetBytes) ETV
attr interpolationmode none
attr recordingmode vector(packetBytes)
attr source packetSentToLower
attr title "packets transmitted, packetBytes"
vector 34 Highway.eNodeB2.x2ppp[0].queue queueLength:vector ETV
attr autoWarmupFilter false
attr interpolationmode sample-hold
attr recordingmode vector
attr source "warmup(atomic(constant0(packetPushEnded) + count(packetPushStarted) - count(packetPulled) - count(packetRemoved) - count(packetDropped)))"
attr title "queue length"
attr unit pk
vector 35 Highway.eNodeB2.x2ppp[0].queue queueBitLength:vector ETV
attr autoWarmupFilter false
attr interpolationmode sample-hold
attr recordingmode vector
attr source "warmup(atomic(constant0(packetPushEnded) + sum(packetLength(packetPushStarted)) - sum(packetLength(packetPulled)) - sum(packetLength(packetRemoved)) - sum(packetLength(packetDropped))))"
attr title "queue bit length"
attr unit b
vector 36 Highway.eNodeB2.x2ppp[0].ppp rxPkOk:vector(packetBytes) ETV
attr interpolationmode none
attr recordingmode vector(packetBytes)
attr source rxPkOk
attr title "packets received OK, packetBytes"
vector 37 Highway.eNodeB2.x2ppp[0].ppp passedUpPk:vector(packetBytes) ETV
attr interpolationmode none
attr recordingmode vector(packetBytes)
attr source packetSentToUpper
attr title "packets passed to higher layer, packetBytes"
vector 38 Highway.eNodeB1.x2ppp[0].ppp rxPkOk:vector(packetBytes) ETV
attr interpolationmode none
attr recordingmode vector(packetBytes)
attr source rxPkOk
attr title "packets received OK, packetBytes"
vector 39 Highway.eNodeB1.x2ppp[0].ppp passedUpPk:vector(packetBytes) ETV
attr interpolationmode none
attr recordingmode vector(packetBytes)
attr source packetSentToUpper
attr title "packets passed to higher layer, packetBytes"
vector 40 Highway.eNodeB1.cellularNic.mac avgServedBlocksUl:vector ETV
attr recordingmode vector
attr source avgServedBlocksUl
attr title "Avg Served Blocks Ul"
attr unit blocks
vector 41 Highway.eNodeB1.cellularNic.mac avgServedBlocksDl:vector ETV
attr recordingmode vector
attr source avgServedBlocksDl
attr title "Avg Served Blocks Dl"
attr unit blocks
vector 42 Highway.eNodeB2.cellularNic.mac avgServedBlocksUl:vector ETV
attr recordingmode vector
attr source avgServedBlocksUl
attr title "Avg Served Blocks Ul"
attr unit blocks
vector 43 Highway.eNodeB2.cellularNic.mac avgServedBlocksDl:vector ETV
attr recordingmode vector
attr source avgServedBlocksDl
attr title "Avg Served Blocks Dl"
attr unit blocks
vector 44 Highway.car[0].udp passedUpPk:vector(count) ETV
attr interpolationmode none
attr recordingmode vector(count)
attr source packetSentToUpper
attr title "packets passed up, count"
vector 45 Highway.car[0].udp droppedPkWrongPort:vector(count) ETV
attr interpolationmode none
attr recordingmode vector(count)
attr source packetDropReasonIsNoPortFound(packetDropped)
attr title "packets dropped (wrong port), count"
vector 46 Highway.car[0].udp droppedPkBadChecksum:vector(count) ETV
attr interpolationmode none
attr recordingmode vector(count)
attr source packetDropReasonIsIncorrectlyReceived(packetDropped)
attr title "packets dropped (checksum error), count"
vector 47 Highway.car[0].cellularNic.channelModel[0] distance:vector ETV
attr recordingmode vector
attr source distance
attr title "distance between UE and serving base station"
attr unit meters
vector 48 Highway.car[0].cellularNic.phy servingCell:vector ETV
attr recordingmode vector
attr source servingCell
attr title "ID of the serving eNodeB for the UE"
attr unit ""
vector 49 Highway.car[0].cellularNic.channelModel[0] measuredSinrUl:vector ETV
attr recordingmode vector
attr source measuredSinrUl
attr title "SINR measured at feedback computation, UL"
attr unit dB
vector 50 Highway.car[0].cellularNic.channelModel[0] measuredSinrDl:vector ETV
attr recordingmode vector
attr source measuredSinrDl
attr title "SINR measured at feedback computation, DL"
attr unit dB
vector 51 Highway.eNodeB1.cellularNic.mac receivedPacketFromLowerLayer:vector(packetBytes) ETV
attr interpolationmode none
attr recordingmode vector(packetBytes)
attr source receivedPacketFromLowerLayer
vector 52 Highway.car[0].app[0] alertSentMsg:vector ETV
attr recordingmode vector
attr source alertSentMsg
attr title "Alert messages sent"
attr unit ""
vector 53 Highway.car[0].udp packetSent:vector(packetBytes) ETV
attr interpolationmode none
attr recordingmode vector(packetBytes)
attr source packetSent
attr title "packets sent, packetBytes"
vector 54 Highway.car[0].lo[0].lo rcvdPkFromHl:vector(packetBytes) ETV
attr interpolationmode none
attr recordingmode vector(packetBytes)
attr source packetReceivedFromUpper
attr title "packets received from higher layer, packetBytes"
vector 55 Highway.car[0].lo[0].lo passedUpPk:vector(packetBytes) ETV
attr interpolationmode none
attr recordingmode vector(packetBytes)
attr source packetSentToUpper
attr title "packets passed to higher layer, packetBytes"
vector 56 Highway.car[0].cellularNic.pdcpRrc receivedPacketFromUpperLayer:vector(packetBytes) ETV
attr interpolationmode none
attr recordingmode vector(packetBytes)
attr source receivedPacketFromUpperLayer
vector 57 Highway.car[0].cellularNic.pdcpRrc sentPacketToLowerLayer:vector(packetBytes) ETV
attr interpolationmode none
attr recordingmode vector(packetBytes)
attr source sentPacketToLowerLayer
vector 58 Highway.car[0].udp packetReceived:vector(packetBytes) ETV
attr interpolationmode none
attr recordingmode vector(packetBytes)
attr source packetReceived
attr title "packets received, packetBytes"
vector 59 Highway.car[0].cellularNic.rlc.um receivedPacketFromUpperLayer:vector(packetBytes) ETV
attr interpolationmode none
attr recordingmode vector(packetBytes)
attr source receivedPacketFromUpperLayer
vector 60 Highway.car[0].cellularNic.mac receivedPacketFromUpperLayer:vector(packetBytes) ETV
attr interpolationmode none
attr recordingmode vector(packetBytes)
attr source receivedPacketFromUpperLayer
vector 61 Highway.car[0].cellularNic.mac sentPacketToLowerLayer:vector(packetBytes) ETV
attr interpolationmode none
attr recordingmode vector(packetBytes)
attr source sentPacketToLowerLayer
vector 62 Highway.eNodeB1.cellularNic.mac sentPacketToLowerLayer:vector(packetBytes) ETV
attr interpolationmode none
attr recordingmode vector(packetBytes)
attr source sentPacketToLowerLayer
vector 63 Highway.car[0].cellularNic.mac receivedPacketFromLowerLayer:vector(packetBytes) ETV
attr interpolationmode none
attr recordingmode vector(packetBytes)
attr source receivedPacketFromLowerLayer
vector 64 Highway.car[0].cellularNic.phy averageCqiUl:vector ETV
attr recordingmode vector
attr source averageCqiUl
attr title "Average Cqi reported in UL"
attr unit cqi
vector 65 Highway.car[0].cellularNic.channelModel[0] rcvdSinrUl:vector ETV
attr recordingmode vector
attr source rcvdSinrUl
attr title "SINR measured at packet reception, UL"
attr unit dB
vector 66 Highway.car[0].cellularNic.mac macDelayUl:vector ETV
attr recordingmode vector
attr source macDelayUl
attr title "Delay at the MAC layer UL"
attr unit s
vector 67 Highway.eNodeB1.cellularNic.mac measuredItbs:vector ETV
attr recordingmode vector
attr source measuredItbs
attr title "TBS index"
attr unit ""
vector 68 Highway.car[0].cellularNic.mac harqErrorRate_1st_Ul:vector ETV
attr recordingmode vector
attr source harqErrorRate_1st_Ul
attr title "Harq Error Rate Ul (1st tx)"
attr unit ""
vector 69 Highway.car[0].cellularNic.mac harqErrorRateUl:vector ETV
attr recordingmode vector
attr source harqErrorRateUl
attr title "Harq Error Rate Ul"
attr unit ""
vector 70 Highway.car[0].cellularNic.mac harqTxAttemptsUl:vector ETV
attr recordingmode vector
attr source harqTxAttemptsUl
attr title "Harq Tx Attempts Ul"
attr unit ""
vector 71 Highway.car[0].cellularNic.mac sentPacketToUpperLayer:vector(packetBytes) ETV
attr interpolationmode none
attr recordingmode vector(packetBytes)
attr source sentPacketToUpperLayer
vector 72 Highway.car[0].cellularNic.rlc.um rlcPacketLossUl:vector ETV
attr recordingmode vector
attr source rlcPacketLossUl
attr title "rlc Packet Loss"
attr unit ""
vector 73 Highway.car[0].cellularNic.rlc.um sentPacketToLowerLayer:vector(packetBytes) ETV
attr interpolationmode none
attr recordingmode vector(packetBytes)
attr source sentPacketToLowerLayer
vector 74 Highway.car[0].cellularNic.phy averageCqiD2D:vector ETV
attr recordingmode vector
attr source averageCqiD2D
attr title "Average Cqi reported in D2D"
attr unit cqi
vector 75 Highway.car[1].udp passedUpPk:vector(count) ETV
attr interpolationmode none
attr recordingmode vector(count)
attr source packetSentToUpper
attr title "packets passed up, count"
vector 76 Highway.car[1].udp droppedPkWrongPort:vector(count) ETV
attr interpolationmode none
attr recordingmode vector(count)
attr source packetDropReasonIsNoPortFound(packetDropped)
attr title "packets dropped (wrong port), count"
vector 77 Highway.car[1].udp droppedPkBadChecksum:vector(count) ETV
attr interpolationmode none
attr recordingmode vector(count)
attr source packetDropReasonIsIncorrectlyReceived(packetDropped)
attr title "packets dropped (checksum error), count"
vector 78 Highway.car[1].cellularNic.channelModel[0] distance:vector ETV
attr recordingmode vector
attr source distance
attr title "distance between UE and serving base station"
attr unit meters
vector 79 Highway.car[1].cellularNic.phy servingCell:vector ETV
attr recordingmode vector
attr source servingCell
attr title "ID of the serving eNodeB for the UE"
attr unit ""
vector 80 Highway.car[1].cellularNic.channelModel[0] measuredSinrUl:vector ETV
attr recordingmode vector
attr source measuredSinrUl
attr title "SINR measured at feedback computation, UL"
attr unit dB
vector 81 Highway.car[1].cellularNic.channelModel[0] measuredSinrDl:vector ETV
attr recordingmode vector
attr source measuredSinrDl
attr title "SINR measured at feedback computation, DL"
attr unit dB
vector 82 Highway.car[1].cellularNic.channelModel[0] rcvdSinrUl:vector ETV
attr recordingmode vector
attr source rcvdSinrUl
attr title "SINR measured at packet reception, UL"
attr unit dB
vector 83 Highway.car[1].cellularNic.mac receivedPacketFromLowerLayer:vector(packetBytes) ETV
attr interpolationmode none
attr recordingmode vector(packetBytes)
attr source receivedPacketFromLowerLayer
vector 84 Highway.car[0].cellularNic.mac macDelayDl:vector ETV
attr recordingmode vector
attr source macDelayDl
attr title "Delay at the MAC layer UL"
attr unit s
vector 85 Highway.car[1].cellularNic.mac sentPacketToUpperLayer:vector(packetBytes) ETV
attr interpolationmode none
attr recordingmode vector(packetBytes)
attr source sentPacketToUpperLayer
vector 86 Highway.car[1].cellularNic.rlc.um receivedPacketFromLowerLayer:vector(packetBytes) ETV
attr interpolationmode none
attr recordingmode vector(packetBytes)
attr source receivedPacketFromLowerLayer
vector 87 Highway.car[1].cellularNic.rlc.um rlcPduThroughputD2D:vector ETV
attr recordingmode vector
attr source rlcPduThroughputD2D
attr title "Throughput at the rlc layer D2D"
attr unit Bps
vector 88 Highway.car[1].cellularNic.rlc.um rlcPduDelayD2D:vector ETV
attr recordingmode vector
attr source rlcPduDelayD2D
attr title "Delay at the rlc layer D2D"
attr unit s
vector 89 Highway.car[1].cellularNic.rlc.um rlcPacketLossD2D:vector ETV
attr recordingmode vector
attr source rlcPacketLossD2D
attr title "rlc Packet Loss"
attr unit ""
vector 90 Highway.car[1].cellularNic.rlc.um rlcPacketLossTotal:vector ETV
attr recordingmode vector
attr source rlcPacketLossTotal
attr title "rlc Packet Loss"
attr unit ""
vector 91 Highway.car[1].cellularNic.rlc.um rlcThroughputD2D:vector ETV
attr recordingmode vector
attr source rlcThroughputD2D
attr title "Throughput at the rlc layer D2D"
attr unit Bps
vector 92 Highway.car[1].cellularNic.rlc.um rlcDelayD2D:vector ETV
attr recordingmode vector
attr source rlcDelayD2D
attr title "Delay at the rlc layer D2D"
attr unit s
vector 93 Highway.car[1].cellularNic.rlc.um sentPacketToUpperLayer:vector(packetBytes) ETV
attr interpolationmode none
attr recordingmode vector(packetBytes)
attr source sentPacketToUpperLayer
vector 94 Highway.car[1].cellularNic.rlc.um rlcPduPacketLossD2D:vector ETV
attr recordingmode vector
attr source rlcPduPacketLossD2D
attr title "rlc Packet Loss"
attr unit ""
vector 95 Highway.car[1].cellularNic.pdcpRrc receivedPacketFromLowerLayer:vector(packetBytes) ETV
attr interpolationmode none
attr recordingmode vector(packetBytes)
attr source receivedPacketFromLowerLayer
vector 96 Highway.car[1].cellularNic.pdcpRrc sentPacketToUpperLayer:vector(packetBytes) ETV
attr interpolationmode none
attr recordingmode vector(packetBytes)
attr source sentPacketToUpperLayer
vector 97 Highway.car[1].udp packetReceived:vector(packetBytes) ETV
attr interpolationmode none
attr recordingmode vector(packetBytes)
attr source packetReceived
attr title "packets received, packetBytes"
vector 98 Highway.car[1].app[0] alertDelay:vector ETV
attr recordingmode vector
attr source alertDelay
attr title "Alert Message Delay"
attr unit s
vector 99 Highway.car[1].app[0] alertRcvdMsg:vector ETV
attr recordingmode vector
attr source alertRcvdMsg
attr title "Alert Messages Received"
attr unit s
vector 100 Highway.car[2].udp passedUpPk:vector(count) ETV
attr interpolationmode none
attr recordingmode vector(count)
attr source packetSentToUpper
attr title "packets passed up, count"
vector 101 Highway.car[2].udp droppedPkWrongPort:vector(count) ETV
attr interpolationmode none
attr recordingmode vector(count)
attr source packetDropReasonIsNoPortFound(packetDropped)
attr title "packets dropped (wrong port), count"
vector 102 Highway.car[2].udp droppedPkBadChecksum:vector(count) ETV
attr interpolationmode none
attr recordingmode vector(count)
attr source packetDropReasonIsIncorrectlyReceived(packetDropped)
attr title "packets dropped (checksum error), count"
vector 103 Highway.car[2].cellularNic.channelModel[0] distance:vector ETV
attr recordingmode vector
attr source distance
attr title "distance between UE and serving base station"
attr unit meters
vector 104 Highway.car[2].cellularNic.phy servingCell:vector ETV
attr recordingmode vector
attr source servingCell
attr title "ID of the serving eNodeB for the UE"
attr unit ""
vector 105 Highway.car[2].cellularNic.channelModel[0] measuredSinrUl:vector ETV
attr recordingmode vector
attr source measuredSinrUl
attr title "SINR measured at feedback computation, UL"
attr unit dB
vector 106 Highway.car[2].cellularNic.channelModel[0] measuredSinrDl:vector ETV
attr recordingmode vector
attr source measuredSinrDl
attr title "SINR measured at feedback computation, DL"
attr unit dB
vector 107 Highway.car[2].cellularNic.channelModel[0] rcvdSinrUl:vector ETV
attr recordingmode vector
attr source rcvdSinrUl
attr title "SINR measured at packet reception, UL"
attr unit dB
vector 108 Highway.car[2].cellularNic.mac receivedPacketFromLowerLayer:vector(packetBytes) ETV
attr interpolationmode none
attr recordingmode vector(packetBytes)
attr source receivedPacketFromLowerLayer
vector 109 Highway.car[2].cellularNic.mac sentPacketToUpperLayer:vector(packetBytes) ETV
attr interpolationmode none
attr recordingmode vector(packetBytes)
attr source sentPacketToUpperLayer
vector 110 Highway.car[2].cellularNic.rlc.um receivedPacketFromLowerLayer:vector(packetBytes) ETV
attr interpolationmode none
attr recordingmode vector(packetBytes)
attr source receivedPacketFromLowerLayer
vector 111 Highway.car[2].cellularNic.rlc.um rlcPduThroughputD2D:vector ETV
attr recordingmode vector
attr source rlcPduThroughputD2D
attr title "Throughput at the rlc layer D2D"
attr unit Bps
vector 112 Highway.car[2].cellularNic.rlc.um rlcPduDelayD2D:vector ETV
attr recordingmode vector
attr source rlcPduDelayD2D
attr title "Delay at the rlc layer D2D"
attr unit s
vector 113 Highway.car[2].cellularNic.rlc.um rlcPacketLossD2D:vector ETV
attr recordingmode vector
attr source rlcPacketLossD2D
attr title "rlc Packet Loss"
attr unit ""
vector 114 Highway.car[2].cellularNic.rlc.um rlcPacketLossTotal:vector ETV
attr recordingmode vector
attr source rlcPacketLossTotal
attr title "rlc Packet Loss"
attr unit ""
vector 115 Highway.car[2].cellularNic.rlc.um rlcThroughputD2D:vector ETV
attr recordingmode vector
attr source rlcThroughputD2D
attr title "Throughput at the rlc layer D2D"
attr unit Bps
vector 116 Highway.car[2].cellularNic.rlc.um rlcDelayD2D:vector ETV
attr recordingmode vector
attr source rlcDelayD2D
attr title "Delay at the rlc layer D2D"
attr unit s
vector 117 Highway.car[2].cellularNic.rlc.um sentPacketToUpperLayer:vector(packetBytes) ETV
attr interpolationmode none
attr recordingmode vector(packetBytes)
attr source sentPacketToUpperLayer
vector 118 Highway.car[2].cellularNic.rlc.um rlcPduPacketLossD2D:vector ETV
attr recordingmode vector
attr source rlcPduPacketLossD2D
attr title "rlc Packet Loss"
attr unit ""
vector 119 Highway.car[2].cellularNic.pdcpRrc receivedPacketFromLowerLayer:vector(packetBytes) ETV
attr interpolationmode none
attr recordingmode vector(packetBytes)
attr source receivedPacketFromLowerLayer
vector 120 Highway.car[2].cellularNic.pdcpRrc sentPacketToUpperLayer:vector(packetBytes) ETV
attr interpolationmode none
attr recordingmode vector(packetBytes)
attr source sentPacketToUpperLayer
vector 121 Highway.car[2].udp packetReceived:vector(packetBytes) ETV
attr interpolationmode none
attr recordingmode vector(packetBytes)
attr source packetReceived
attr title "packets received, packetBytes"
vector 122 Highway.car[2].app[0] alertDelay:vector ETV
attr recordingmode vector
attr source alertDelay
attr title "Alert Message Delay"
attr unit s
vector 123 Highway.car[2].app[0] alertRcvdMsg:vector ETV
attr recordingmode vector
attr source alertRcvdMsg
attr title "Alert Messages Received"
attr unit s
67	613	0.117	12
67	613	0.117	12
67	613	0.117	12
67	613	0.117	12
67	613	0.117	12
67	613	0.117	12
67	613	0.117	12
67	613	0.117	12
67	613	0.117	12
67	613	0.117	12
67	613	0.117	12
67	613	0.117	12
67	613	0.117	12
67	613	0.117	12
67	613	0.117	12
67	613	0.117	12
67	613	0.117	12
67	613	0.117	12
67	613	0.117	12
67	613	0.117	12
67	613	0.117	12
67	613	0.117	12
67	613	0.117	12
67	613	0.117	12
67	613	0.117	12
67	660	0.122	12
67	660	0.122	12
67	660	0.122	12
67	660	0.122	12
67	660	0.122	12
67	660	0.122	12
67	660	0.122	12
67	660	0.122	12
67	660	0.122	12
67	660	0.122	12
67	660	0.122	12
67	660	0.122	12
67	660	0.122	12
67	660	0.122	12
67	660	0.122	12
67	660	0.122	12
67	660	0.122	12
67	660	0.122	12
67	660	0.122	12
67	660	0.122	12
67	660	0.122	12
67	660	0.122	12
67	660	0.122	12
67	660	0.122	12
67	660	0.122	12
67	783	0.137	12
67	783	0.137	12
67	783	0.137	12
67	783	0.137	12
67	783	0.137	12
67	783	0.137	12
67	783	0.137	12
67	783	0.137	12
67	783	0.137	12
67	783	0.137	12
67	783	0.137	12
67	783	0.137	12
67	783	0.137	12
67	783	0.137	12
67	783	0.137	12
67	783	0.137	12
67	783	0.137	12
67	783	0.137	12
67	783	0.137	12
67	783	0.137	12
67	783	0.137	12
67	783	0.137	12
67	783	0.137	12
67	783	0.137	12
67	783	0.137	12
67	829	0.142	12
67	829	0.142	12
67	829	0.142	12
67	829	0.142	12
67	829	0.142	12
67	829	0.142	12
67	829	0.142	12
67	829	0.142	12
67	829	0.142	12
67	829	0.142	12
67	829	0.142	12
67	829	0.142	12
67	829	0.142	12
67	829	0.142	12
67	829	0.142	12
67	829	0.142	12
67	829	0.142	12
67	829	0.142	12
67	829	0.142	12
67	829	0.142	12
67	829	0.142	12
67	829	0.142	12
67	829	0.142	12
67	829	0.142	12
67	829	0.142	12
67	953	0.157	12
67	953	0.157	12
67	953	0.157	12
67	953	0.157	12
67	953	0.157	12
67	953	0.157	12
67	953	0.157	12
67	953	0.157	12
67	953	0.157	12
67	953	0.157	12
67	953	0.157	12
67	953	0.157	12
67	953	0.157	12
67	953	0.157	12
67	953	0.157	12
67	953	0.157	12
67	953	0.157	12
67	953	0.157	12
67	953	0.157	12
67	953	0.157	12
67	953	0.157	12
67	953	0.157	12
67	953	0.157	12
67	953	0.157	12
67	953	0.157	12
67	998	0.162	12
67	998	0.162	12
67	998	0.162	12
67	998	0.162	12
67	998	0.162	12
67	998	0.162	12
67	998	0.162	12
67	998	0.162	12
67	998	0.162	12
67	998	0.162	12
67	998	0.162	12
67	998	0.162	12
67	998	0.162	12
67	998	0.162	12
67	998	0.162	12
67	998	0.162	12
67	998	0.162	12
67	998	0.162	12
67	998	0.162	12
67	998	0.162	12
67	998	0.162	12
67	998	0.162	12
67	998	0.162	12
67	998	0.162	12
67	998	0.162	12
67	1121	0.177	12
67	1121	0.177	12
67	1121	0.177	12
67	1121	0.177	12
67	1121	0.177	12
67	1121	0.177	12
67	1121	0.177	12
67	1121	0.177	12
67	1121	0.177	12
67	1121	0.177	12
67	1121	0.177	12
67	1121	0.177	12
67	1121	0.177	12
67	1121	0.177	12
67	1121	0.177	12
67	1121	0.177	12
67	1121	0.177	12
67	1121	0.177	12
67	1121	0.177	12
67	1121	0.177	12
67	1121	0.177	12
67	1121	0.177	12
67	1121	0.177	12
67	1121	0.177	12
67	1121	0.177	12
67	1168	0.182	12
67	1168	0.182	12
67	1168	0.182	12
67	1168	0.182	12
67	1168	0.182	12
67	1168	0.182	12
67	1168	0.182	12
67	1168	0.182	12
67	1168	0.182	12
67	1168	0.182	12
67	1168	0.182	12
67	1168	0.182	12
67	1168	0.182	12
67	1168	0.182	12
67	1168	0.182	12
67	1168	0.182	12
67	1168	0.182	12
67	1168	0.182	12
67	1168	0.182	12
67	1168	0.182	12
67	1168	0.182	12
67	1168	0.182	12
67	1168	0.182	12
67	1168	0.182	12
67	1168	0.182	12
67	1291	0.197	12
67	1291	0.197	12
67	1291	0.197	12
67	1291	0.197	12
67	1291	0.197	12
67	1291	0.197	12
67	1291	0.197	12
67	1291	0.197	12
67	1291	0.197	12
67	1291	0.197	12
67	1291	0.197	12
67	1291	0.197	12
67	1291	0.197	12
67	1291	0.197	12
67	1291	0.197	12
67	1291	0.197	12
67	1291	0.197	12
67	1291	0.197	12
67	1291	0.197	12
67	1291	0.197	12
67	1291	0.197	12
67	1291	0.197	12
67	1291	0.197	12
67	1291	0.197	12
67	1291	0.197	12
67	1338	0.202	12
67	1338	0.202	12
67	1338	0.202	12
67	1338	0.202	12
67	1338	0.202	12
67	1338	0.202	12
67	1338	0.202	12
67	1338	0.202	12
67	1338	0.202	12
67	1338	0.202	12
67	1338	0.202	12
67	1338	0.202	12
67	1338	0.202	12
67	1338	0.202	12
67	1338	0.202	12
67	1338	0.202	12
67	1338	0.202	12
67	1338	0.202	12
67	1338	0.202	12
67	1338	0.202	12
67	1338	0.202	12
67	1338	0.202	12
67	1338	0.202	12
67	1338	0.202	12
67	1338	0.202	12
67	1462	0.217	12
67	1462	0.217	12
67	1462	0.217	12
67	1462	0.217	12
67	1462	0.217	12
67	1462	0.217	12
67	1462	0.217	12
67	1462	0.217	12
67	1462	0.217	12
67	1462	0.217	12
67	1462	0.217	12
67	1462	0.217	12
67	1462	0.217	12
67	1462	0.217	12
67	1462	0.217	12
67	1462	0.217	12
67	1462	0.217	12
67	1462	0.217	12
67	1462	0.217	12
67	1462	0.217	12
67	1462	0.217	12
67	1462	0.217	12
67	1462	0.217	12
67	1462	0.217	12
67	1462	0.217	12
67	1507	0.222	12
67	1507	0.222	12
67	1507	0.222	12
67	1507	0.222	12
67	1507	0.222	12
67	1507	0.222	12
67	1507	0.222	12
67	1507	0.222	12
67	1507	0.222	12
67	1507	0.222	12
67	1507	0.222	12
67	1507	0.222	12
67	1507	0.222	12
67	1507	0.222	12
67	1507	0.222	12
67	1507	0.222	12
67	1507	0.222	12
67	1507	0.222	12
67	1507	0.222	12
67	1507	0.222	12
67	1507	0.222	12
67	1507	0.222	12
67	1507	0.222	12
67	1507	0.222	12
67	1507	0.222	12
67	1630	0.237	12
67	1630	0.237	12
67	1630	0.237	12
67	1630	0.237	12
67	1630	0.237	12
67	1630	0.237	12
67	1630	0.237	12
67	1630	0.237	12
67	1630	0.237	12
67	1630	0.237	12
67	1630	0.237	12
67	1630	0.237	12
67	1630	0.237	12
67	1630	0.237	12
67	1630	0.237	12
67	1630	0.237	12
67	1630	0.237	12
67	1630	0.237	12
67	1630	0.237	12
67	1630	0.237	12
67	1630	0.237	12
67	1630	0.237	12
67	1630	0.237	12
67	1630	0.237	12
67	1630	0.237	12
67	1677	0.242	12
67	1677	0.242	12
67	1677	0.242	12
67	1677	0.242	12
67	1677	0.242	12
67	1677	0.242	12
67	1677	0.242	12
67	1677	0.242	12
67	1677	0.242	12
67	1677	0.242	12
67	1677	0.242	12
67	1677	0.242	12
67	1677	0.242	12
67	1677	0.242	12
67	1677	0.242	12
67	1677	0.242	12
67	1677	0.242	12
67	1677	0.242	12
67	1677	0.242	12
67	1677	0.242	12
67	1677	0.242	12
67	1677	0.242	12
67	1677	0.242	12
67	1677	0.242	12
67	1677	0.242	12
67	1800	0.257	12
67	1800	0.257	12
67	1800	0.257	12
67	1800	0.257	12
67	1800	0.257	12
67	1800	0.257	12
67	1800	0.257	12
67	1800	0.257	12
67	1800	0.257	12
67	1800	0.257	12
67	1800	0.257	12
67	1800	0.257	12
67	1800	0.257	12
67	1800	0.257	12
67	1800	0.257	12
67	1800	0.257	12
67	1800	0.257	12
67	1800	0.257	12
67	1800	0.257	12
67	1800	0.257	12
67	1800	0.257	12
67	1800	0.257	12
67	1800	0.257	12
67	1800	0.257	12
67	1800	0.257	12
67	1846	0.262	12
67	1846	0.262	12
67	1846	0.262	12
67	1846	0.262	12
67	1846	0.262	12
67	1846	0.262	12
67	1846	0.262	12
67	1846	0.262	12
67	1846	0.262	12
67	1846	0.262	12
67	1846	0.262	12
67	1846	0.262	12
67	1846	0.262	12
67	1846	0.262	12
67	1846	0.262	12
67	1846	0.262	12
67	1846	0.262	12
67	1846	0.262	12
67	1846	0.262	12
67	1846	0.262	12
67	1846	0.262	12
67	1846	0.262	12
67	1846	0.262	12
67	1846	0.262	12
67	1846	0.262	12
67	1970	0.277	12
67	1970	0.277	12
67	1970	0.277	12
67	1970	0.277	12
67	1970	0.277	12
67	1970	0.277	12
67	1970	0.277	12
67	1970	0.277	12
67	1970	0.277	12
67	1970	0.277	12
67	1970	0.277	12
67	1970	0.277	12
67	1970	0.277	12
67	1970	0.277	12
67	1970	0.277	12
67	1970	0.277	12
67	1970	0.277	12
67	1970	0.277	12
67	1970	0.277	12
67	1970	0.277	12
67	1970	0.277	12
67	1970	0.277	12
67	1970	0.277	12
67	1970	0.277	12
67	1970	0.277	12
67	2015	0.282	12
67	2015	0.282	12
67	2015	0.282	12
67	2015	0.282	12
67	2015	0.282	12
67	2015	0.282	12
67	2015	0.282	12
67	2015	0.282	12
67	2015	0.282	12
67	2015	0.282	12
67	2015	0.282	12
67	2015	0.282	12
67	2015	0.282	12
67	2015	0.282	12
67	2015	0.282	12
67	2015	0.282	12
67	2015	0.282	12
67	2015	0.282	12
67	2015	0.282	12
67	2015	0.282	12
67	2015	0.282	12
67	2015	0.282	12
67	2015	0.282	12
67	2015	0.282	12
67	2015	0.282	12
67	2138	0.297	12
67	2138	0.297	12
67	2138	0.297	12
67	2138	0.297	12
67	2138	0.297	12
67	2138	0.297	12
67	2138	0.297	12
67	2138	0.297	12
67	2138	0.297	12
67	2138	0.297	12
67	2138	0.297	12
67	2138	0.297	12
67	2138	0.297	12
67	2138	0.297	12
67	2138	0.297	12
67	2138	0.297	12
67	2138	0.297	12
67	2138	0.297	12
67	2138	0.297	12
67	2138	0.297	12
67	2138	0.297	12
67	2138	0.297	12
67	2138	0.297	12
67	2138	0.297	12
67	2138	0.297	12
67	2186	0.302	12
67	2186	0.302	12
67	2186	0.302	12
67	2186	0.302	12
67	2186	0.302	12
67	2186	0.302	12
67	2186	0.302	12
67	2186	0.302	12
67	2186	0.302	12
67	2186	0.302	12
67	2186	0.302	12
67	2186	0.302	12
67	2186	0.302	12
67	2186	0.302	12
67	2186	0.302	12
67	2186	0.302	12
67	2186	0.302	12
67	2186	0.302	12
67	2186	0.302	12
67	2186	0.302	12
67	2186	0.302	12
67	2186	0.302	12
67	2186	0.302	12
67	2186	0.302	12
67	2186	0.302	12
67	2309	0.317	12
67	2309	0.317	12
67	2309	0.317	12
67	2309	0.317	12
67	2309	0.317	12
67	2309	0.317	12
67	2309	0.317	12
67	2309	0.317	12
67	2309	0.317	12
67	2309	0.317	12
67	2309	0.317	12
67	2309	0.317	12
67	2309	0.317	12
67	2309	0.317	12
67	2309	0.317	12
67	2309	0.317	12
67	2309	0.317	12
67	2309	0.317	12
67	2309	0.317	12
67	2309	0.317	12
67	2309	0.317	12
67	2309	0.317	12
67	2309	0.317	12
67	2309	0.317	12
67	2309	0.317	12
67	2355	0.322	12
67	2355	0.322	12
67	2355	0.322	12
67	2355	0.322	12
67	2355	0.322	12
67	2355	0.322	12
67	2355	0.322	12
67	2355	0.322	12
67	2355	0.322	12
67	2355	0.322	12
67	2355	0.322	12
67	2355	0.322	12
67	2355	0.322	12
67	2355	0.322	12
67	2355	0.322	12
67	2355	0.322	12
67	2355	0.322	12
67	2355	0.322	12
67	2355	0.322	12
67	2355	0.322	12
67	2355	0.322	12
67	2355	0.322	12
67	2355	0.322	12
67	2355	0.322	12
67	2355	0.322	12
67	2479	0.337	12
67	2479	0.337	12
67	2479	0.337	12
67	2479	0.337	12
67	2479	0.337	12
67	2479	0.337	12
67	2479	0.337	12
67	2479	0.337	12
67	2479	0.337	12
67	2479	0.337	12
67	2479	0.337	12
67	2479	0.337	12
67	2479	0.337	12
67	2479	0.337	12
67	2479	0.337	12
67	2479	0.337	12
67	2479	0.337	12
67	2479	0.337	12
67	2479	0.337	12
67	2479	0.337	12
67	2479	0.337	12
67	2479	0.337	12
67	2479	0.337	12
67	2479	0.337	12
67	2479	0.337	12
67	2524	0.342	12
67	2524	0.342	12
67	2524	0.342	12
67	2524	0.342	12
67	2524	0.342	12
67	2524	0.342	12
67	2524	0.342	12
67	2524	0.342	12
67	2524	0.342	12
67	2524	0.342	12
67	2524	0.342	12
67	2524	0.342	12
67	2524	0.342	12
67	2524	0.342	12
67	2524	0.342	12
67	2524	0.342	12
67	2524	0.342	12
67	2524	0.342	12
67	2524	0.342	12
67	2524	0.342	12
67	2524	0.342	12
67	2524	0.342	12
67	2524	0.342	12
67	2524	0.342	12
67	2524	0.342	12
67	2647	0.357	12
67	2647	0.357	12
67	2647	0.357	12
67	2647	0.357	12
67	2647	0.357	12
67	2647	0.357	12
67	2647	0.357	12
67	2647	0.357	12
67	2647	0.357	12
67	2647	0.357	12
67	2647	0.357	12
67	2647	0.357	12
67	2647	0.357	12
67	2647	0.357	12
67	2647	0.357	12
67	2647	0.357	12
67	2647	0.357	12
67	2647	0.357	12
67	2647	0.357	12
67	2647	0.357	12
67	2647	0.357	12
67	2647	0.357	12
67	2647	0.357	12
67	2647	0.357	12
67	2647	0.357	12
67	2694	0.362	12
67	2694	0.362	12
67	2694	0.362	12
67	2694	0.362	12
67	2694	0.362	12
67	2694	0.362	12
67	2694	0.362	12
67	2694	0.362	12
67	2694	0.362	12
67	2694	0.362	12
67	2694	0.362	12
67	2694	0.362	12
67	2694	0.362	12
67	2694	0.362	12
67	2694	0.362	12
67	2694	0.362	12
67	2694	0.362	12
67	2694	0.362	12
67	2694	0.362	12
67	2694	0.362	12
67	2694	0.362	12
67	2694	0.362	12
67	2694	0.362	12
67	2694	0.362	12
67	2694	0.362	12
67	2817	0.377	12
67	2817	0.377	12
67	2817	0.377	12
67	2817	0.377	12
67	2817	0.377	12
67	2817	0.377	12
67	2817	0.377	12
67	2817	0.377	12
67	2817	0.377	12
67	2817	0.377	12
67	2817	0.377	12
67	2817	0.377	12
67	2817	0.377	12
67	2817	0.377	12
67	2817	0.377	12
67	2817	0.377	12
67	2817	0.377	12
67	2817	0.377	12
67	2817	0.377	12
67	2817	0.377	12
67	2817	0.377	12
67	2817	0.377	12
67	2817	0.377	12
67	2817	0.377	12
67	2817	0.377	12
67	2863	0.382	12
67	2863	0.382	12
67	2863	0.382	12
67	2863	0.382	12
67	2863	0.382	12
67	2863	0.382	12
67	2863	0.382	12
67	2863	0.382	12
67	2863	0.382	12
67	2863	0.382	12
67	2863	0.382	12
67	2863	0.382	12
67	2863	0.382	12
67	2863	0.382	12
67	2863	0.382	12
67	2863	0.382	12
67	2863	0.382	12
67	2863	0.382	12
67	2863	0.382	12
67	2863	0.382	12
67	2863	0.382	12
67	2863	0.382	12
67	2863	0.382	12
67	2863	0.382	12
67	2863	0.382	12
67	2987	0.397	12
67	2987	0.397	12
67	2987	0.397	12
67	2987	0.397	12
67	2987	0.397	12
67	2987	0.397	12
67	2987	0.397	12
67	2987	0.397	12
67	2987	0.397	12
67	2987	0.397	12
67	2987	0.397	12
67	2987	0.397	12
67	2987	0.397	12
67	2987	0.397	12
67	2987	0.397	12
67	2987	0.397	12
67	2987	0.397	12
67	2987	0.397	12
67	2987	0.397	12
67	2987	0.397	12
67	2987	0.397	12
67	2987	0.397	12
67	2987	0.397	12
67	2987	0.397	12
67	2987	0.397	12
67	3033	0.402	12
67	3033	0.402	12
67	3033	0.402	12
67	3033	0.402	12
67	3033	0.402	12
67	3033	0.402	12
67	3033	0.402	12
67	3033	0.402	12
67	3033	0.402	12
67	3033	0.402	12
67	3033	0.402	12
67	3033	0.402	12
67	3033	0.402	12
67	3033	0.402	12
67	3033	0.402	12
67	3033	0.402	12
67	3033	0.402	12
67	3033	0.402	12
67	3033	0.402	12
67	3033	0.402	12
67	3033	0.402	12
67	3033	0.402	12
67	3033	0.402	12
67	3033	0.402	12
67	3033	0.402	12
67	3156	0.417	12
67	3156	0.417	12
67	3156	0.417	12
67	3156	0.417	12
67	3156	0.417	12
67	3156	0.417	12
67	3156	0.417	12
67	3156	0.417	12
67	3156	0.417	12
67	3156	0.417	12
67	3156	0.417	12
67	3156	0.417	12
67	3156	0.417	12
67	3156	0.417	12
67	3156	0.417	12
67	3156	0.417	12
67	3156	0.417	12
67	3156	0.417	12
67	3156	0.417	12
67	3156	0.417	12
67	3156	0.417	12
67	3156	0.417	12
67	3156	0.417	12
67	3156	0.417	12
67	3156	0.417	12
67	3203	0.422	12
67	3203	0.422	12
67	3203	0.422	12
67	3203	0.422	12
67	3203	0.422	12
67	3203	0.422	12
67	3203	0.422	12
67	3203	0.422	12
67	3203	0.422	12
67	3203	0.422	12
67	3203	0.422	12
67	3203	0.422	12
67	3203	0.422	12
67	3203	0.422	12
67	3203	0.422	12
67	3203	0.422	12
67	3203	0.422	12
67	3203	0.422	12
67	3203	0.422	12
67	3203	0.422	12
67	3203	0.422	12
67	3203	0.422	12
67	3203	0.422	12
67	3203	0.422	12
67	3203	0.422	12
67	3326	0.437	12
67	3326	0.437	12
67	3326	0.437	12
67	3326	0.437	12
67	3326	0.437	12
67	3326	0.437	12
67	3326	0.437	12
67	3326	0.437	12
67	3326	0.437	12
67	3326	0.437	12
67	3326	0.437	12
67	3326	0.437	12
67	3326	0.437	12
67	3326	0.437	12
67	3326	0.437	12
67	3326	0.437	12
67	3326	0.437	12
67	3326	0.437	12
67	3326	0.437	12
67	3326	0.437	12
67	3326	0.437	12
67	3326	0.437	12
67	3326	0.437	12
67	3326	0.437	12
67	3326	0.437	12
67	3372	0.442	12
67	3372	0.442	12
67	3372	0.442	12
67	3372	0.442	12
67	3372	0.442	12
67	3372	0.442	12
67	3372	0.442	12
67	3372	0.442	12
67	3372	0.442	12
67	3372	0.442	12
67	3372	0.442	12
67	3372	0.442	12
67	3372	0.442	12
67	3372	0.442	12
67	3372	0.442	12
67	3372	0.442	12
67	3372	0.442	12
67	3372	0.442	12
67	3372	0.442	12
67	3372	0.442	12
67	3372	0.442	12
67	3372	0.442	12
67	3372	0.442	12
67	3372	0.442	12
67	3372	0.442	12
67	3496	0.457	12
67	3496	0.457	12
67	3496	0.457	12
67	3496	0.457	12
67	3496	0.457	12
67	3496	0.457	12
67	3496	0.457	12
67	3496	0.457	12
67	3496	0.457	12
67	3496	0.457	12
67	3496	0.457	12
67	3496	0.457	12
67	3496	0.457	12
67	3496	0.457	12
67	3496	0.457	12
67	3496	0.457	12
67	3496	0.457	12
67	3496	0.457	12
67	3496	0.457	12
67	3496	0.457	12
67	3496	0.457	12
67	3496	0.457	12
67	3496	0.457	12
67	3496	0.457	12
67	3496	0.457	12
67	3541	0.462	12
67	3541	0.462	12
67	3541	0.462	12
67	3541	0.462	12
67	3541	0.462	12
67	3541	0.462	12
67	3541	0.462	12
67	3541	0.462	12
67	3541	0.462	12
67	3541	0.462	12
67	3541	0.462	12
67	3541	0.462	12
67	3541	0.462	12
67	3541	0.462	12
67	3541	0.462	12
67	3541	0.462	12
67	3541	0.462	12
67	3541	0.462	12
67	3541	0.462	12
67	3541	0.462	12
67	3541	0.462	12
67	3541	0.462	12
67	3541	0.462	12
67	3541	0.462	12
67	3541	0.462	12
67	3664	0.477	12
67	3664	0.477	12
67	3664	0.477	12
67	3664	0.477	12
67	3664	0.477	12
67	3664	0.477	12
67	3664	0.477	12
67	3664	0.477	12
67	3664	0.477	12
67	3664	0.477	12
67	3664	0.477	12
67	3664	0.477	12
67	3664	0.477	12
67	3664	0.477	12
67	3664	0.477	12
67	3664	0.477	12
67	3664	0.477	12
67	3664	0.477	12
67	3664	0.477	12
67	3664	0.477	12
67	3664	0.477	12
67	3664	0.477	12
67	3664	0.477	12
67	3664	0.477	12
67	3664	0.477	12
67	3711	0.482	12
67	3711	0.482	12
67	3711	0.482	12
67	3711	0.482	12
67	3711	0.482	12
67	3711	0.482	12
67	3711	0.482	12
67	3711	0.482	12
67	3711	0.482	12
67	3711	0.482	12
67	3711	0.482	12
67	3711	0.482	12
67	3711	0.482	12
67	3711	0.482	12
67	3711	0.482	12
67	3711	0.482	12
67	3711	0.482	12
67	3711	0.482	12
67	3711	0.482	12
67	3711	0.482	12
67	3711	0.482	12
67	3711	0.482	12
67	3711	0.482	12
67	3711	0.482	12
67	3711	0.482	12
67	3834	0.497	12
67	3834	0.497	12
67	3834	0.497	12
67	3834	0.497	12
67	3834	0.497	12
67	3834	0.497	12
67	3834	0.497	12
67	3834	0.497	12
67	3834	0.497	12
67	3834	0.497	12
67	3834	0.497	12
67	3834	0.497	12
67	3834	0.497	12
67	3834	0.497	12
67	3834	0.497	12
67	3834	0.497	12
67	3834	0.497	12
67	3834	0.497	12
67	3834	0.497	12
67	3834	0.497	12
67	3834	0.497	12
67	3834	0.497	12
67	3834	0.497	12
67	3834	0.497	12
67	3834	0.497	12
67	3881	0.502	12
67	3881	0.502	12
67	3881	0.502	12
67	3881	0.502	12
67	3881	0.502	12
67	3881	0.502	12
67	3881	0.502	12
67	3881	0.502	12
67	3881	0.502	12
67	3881	0.502	12
67	3881	0.502	12
67	3881	0.502	12
67	3881	0.502	12
67	3881	0.502	12
67	3881	0.502	12
67	3881	0.502	12
67	3881	0.502	12
67	3881	0.502	12
67	3881	0.502	12
67	3881	0.502	12
67	3881	0.502	12
67	3881	0.502	12
67	3881	0.502	12
67	3881	0.502	12
67	3881	0.502	12
67	4005	0.517	12
67	4005	0.517	12
67	4005	0.517	12
67	4005	0.517	12
67	4005	0.517	12
67	4005	0.517	12
67	4005	0.517	12
67	4005	0.517	12
67	4005	0.517	12
67	4005	0.517	12
67	4005	0.517	12
67	4005	0.517	12
67	4005	0.517	12
67	4005	0.517	12
67	4005	0.517	12
67	4005	0.517	12
67	4005	0.517	12
67	4005	0.517	12
67	4005	0.517	12
67	4005	0.517	12
67	4005	0.517	12
67	4005	0.517	12
67	4005	0.517	12
67	4005	0.517	12
67	4005	0.517	12
67	4050	0.522	12
67	4050	0.522	12
67	4050	0.522	12
67	4050	0.522	12
67	4050	0.522	12
67	4050	0.522	12
67	4050	0.522	12
67	4050	0.522	12
67	4050	0.522	12
67	4050	0.522	12
67	4050	0.522	12
67	4050	0.522	12
67	4050	0.522	12
67	4050	0.522	12
67	4050	0.522	12
67	4050	0.522	12
67	4050	0.522	12
67	4050	0.522	12
67	4050	0.522	12
67	4050	0.522	12
67	4050	0.522	12
67	4050	0.522	12
67	4050	0.522	12
67	4050	0.522	12
67	4050	0.522	12
67	4173	0.537	12
67	4173	0.537	12
67	4173	0.537	12
67	4173	0.537	12
67	4173	0.537	12
67	4173	0.537	12
67	4173	0.537	12
67	4173	0.537	12
67	4173	0.537	12
67	4173	0.537	12
67	4173	0.537	12
67	4173	0.537	12
67	4173	0.537	12
67	4173	0.537	12
67	4173	0.537	12
67	4173	0.537	12
67	4173	0.537	12
67	4173	0.537	12
67	4173	0.537	12
67	4173	0.537	12
67	4173	0.537	12
67	4173	0.537	12
67	4173	0.537	12
67	4173	0.537	12
67	4173	0.537	12
67	4220	0.542	12
67	4220	0.542	12
67	4220	0.542	12
67	4220	0.542	12
67	4220	0.542	12
67	4220	0.542	12
67	4220	0.542	12
67	4220	0.542	12
67	4220	0.542	12
67	4220	0.542	12
67	4220	0.542	12
67	4220	0.542	12
67	4220	0.542	12
67	4220	0.542	12
67	4220	0.542	12
67	4220	0.542	12
67	4220	0.542	12
67	4220	0.542	12
67	4220	0.542	12
67	4220	0.542	12
67	4220	0.542	12
67	4220	0.542	12
67	4220	0.542	12
67	4220	0.542	12
67	4220	0.542	12
67	4343	0.557	12
67	4343	0.557	12
67	4343	0.557	12
67	4343	0.557	12
67	4343	0.557	12
67	4343	0.557	12
67	4343	0.557	12
67	4343	0.557	12
67	4343	0.557	12
67	4343	0.557	12
67	4343	0.557	12
67	4343	0.557	12
67	4343	0.557	12
67	4343	0.557	12
67	4343	0.557	12
67	4343	0.557	12
67	4343	0.557	12
67	4343	0.557	12
67	4343	0.557	12
67	4343	0.557	12
67	4343	0.557	12
67	4343	0.557	12
67	4343	0.557	12
67	4343	0.557	12
67	4343	0.557	12
67	4389	0.562	12
67	4389	0.562	12
67	4389	0.562	12
67	4389	0.562	12
67	4389	0.562	12
67	4389	0.562	12
67	4389	0.562	12
67	4389	0.562	12
67	4389	0.562	12
67	4389	0.562	12
67	4389	0.562	12
67	4389	0.562	12
67	4389	0.562	12
67	4389	0.562	12
67	4389	0.562	12
67	4389	0.562	12
67	4389	0.562	12
67	4389	0.562	12
67	4389	0.562	12
67	4389	0.562	12
67	4389	0.562	12
67	4389	0.562	12
67	4389	0.562	12
67	4389	0.562	12
67	4389	0.562	12
67	4513	0.577	12
67	4513	0.577	12
67	4513	0.577	12
67	4513	0.577	12
67	4513	0.577	12
67	4513	0.577	12
67	4513	0.577	12
67	4513	0.577	12
67	4513	0.577	12
67	4513	0.577	12
67	4513	0.577	12
67	4513	0.577	12
67	4513	0.577	12
67	4513	0.577	12
67	4513	0.577	12
67	4513	0.577	12
67	4513	0.577	12
67	4513	0.577	12
67	4513	0.577	12
67	4513	0.577	12
67	4513	0.577	12
67	4513	0.577	12
67	4513	0.577	12
67	4513	0.577	12
67	4513	0.577	12
67	4558	0.582	12
67	4558	0.582	12
67	4558	0.582	12
67	4558	0.582	12
67	4558	0.582	12
67	4558	0.582	12
67	4558	0.582	12
67	4558	0.582	12
67	4558	0.582	12
67	4558	0.582	12
67	4558	0.582	12
67	4558	0.582	12
67	4558	0.582	12
67	4558	0.582	12
67	4558	0.582	12
67	4558	0.582	12
67	4558	0.582	12
67	4558	0.582	12
67	4558	0.582	12
67	4558	0.582	12
67	4558	0.582	12
67	4558	0.582	12
67	4558	0.582	12
67	4558	0.582	12
67	4558	0.582	12
67	4681	0.597	12
67	4681	0.597	12
67	4681	0.597	12
67	4681	0.597	12
67	4681	0.597	12
67	4681	0.597	12
67	4681	0.597	12
67	4681	0.597	12
67	4681	0.597	12
67	4681	0.597	12
67	4681	0.597	12
67	4681	0.597	12
67	4681	0.597	12
67	4681	0.597	12
67	4681	0.597	12
67	4681	0.597	12
67	4681	0.597	12
67	4681	0.597	12
67	4681	0.597	12
67	4681	0.597	12
67	4681	0.597	12
67	4681	0.597	12
67	4681	0.597	12
67	4681	0.597	12
67	4681	0.597	12
67	4729	0.602	12
67	4729	0.602	12
67	4729	0.602	12
67	4729	0.602	12
67	4729	0.602	12
67	4729	0.602	12
67	4729	0.602	12
67	4729	0.602	12
67	4729	0.602	12
67	4729	0.602	12
67	4729	0.602	12
67	4729	0.602	12
67	4729	0.602	12
67	4729	0.602	12
67	4729	0.602	12
67	4729	0.602	12
67	4729	0.602	12
67	4729	0.602	12
67	4729	0.602	12
67	4729	0.602	12
67	4729	0.602	12
67	4729	0.602	12
67	4729	0.602	12
67	4729	0.602	12
67	4729	0.602	12
67	4852	0.617	12
67	4852	0.617	12
67	4852	0.617	12
67	4852	0.617	12
67	4852	0.617	12
67	4852	0.617	12
67	4852	0.617	12
67	4852	0.617	12
67	4852	0.617	12
67	4852	0.617	12
67	4852	0.617	12
67	4852	0.617	12
67	4852	0.617	12
67	4852	0.617	12
67	4852	0.617	12
67	4852	0.617	12
67	4852	0.617	12
67	4852	0.617	12
67	4852	0.617	12
67	4852	0.617	12
67	4852	0.617	12
67	4852	0.617	12
67	4852	0.617	12
67	4852	0.617	12
67	4852	0.617	12
67	4898	0.622	12
67	4898	0.622	12
67	4898	0.622	12
67	4898	0.622	12
67	4898	0.622	12
67	4898	0.622	12
67	4898	0.622	12
67	4898	0.622	12
67	4898	0.622	12
67	4898	0.622	12
67	4898	0.622	12
67	4898	0.622	12
67	4898	0.622	12
67	4898	0.622	12
67	4898	0.622	12
67	4898	0.622	12
67	4898	0.622	12
67	4898	0.622	12
67	4898	0.622	12
67	4898	0.622	12
67	4898	0.622	12
67	4898	0.622	12
67	4898	0.622	12
67	4898	0.622	12
67	4898	0.622	12
67	5022	0.637	12
67	5022	0.637	12
67	5022	0.637	12
67	5022	0.637	12
67	5022	0.637	12
67	5022	0.637	12
67	5022	0.637	12
67	5022	0.637	12
67	5022	0.637	12
67	5022	0.637	12
67	5022	0.637	12
67	5022	0.637	12
67	5022	0.637	12
67	5022	0.637	12
67	5022	0.637	12
67	5022	0.637	12
67	5022	0.637	12
67	5022	0.637	12
67	5022	0.637	12
67	5022	0.637	12
67	5022	0.637	12
67	5022	0.637	12
67	5022	0.637	12
67	5022	0.637	12
67	5022	0.637	12
67	5067	0.642	12
67	5067	0.642	12
67	5067	0.642	12
67	5067	0.642	12
67	5067	0.642	12
67	5067	0.642	12
67	5067	0.642	12
67	5067	0.642	12
67	5067	0.642	12
67	5067	0.642	12
67	5067	0.642	12
67	5067	0.642	12
67	5067	0.642	12
67	5067	0.642	12
67	5067	0.642	12
67	5067	0.642	12
67	5067	0.642	12
67	5067	0.642	12
67	5067	0.642	12
67	5067	0.642	12
67	5067	0.642	12
67	5067	0.642	12
67	5067	0.642	12
67	5067	0.642	12
67	5067	0.642	12
67	5190	0.657	12
67	5190	0.657	12
67	5190	0.657	12
67	5190	0.657	12
67	5190	0.657	12
67	5190	0.657	12
67	5190	0.657	12
67	5190	0.657	12
67	5190	0.657	12
67	5190	0.657	12
67	5190	0.657	12
67	5190	0.657	12
67	5190	0.657	12
67	5190	0.657	12
67	5190	0.657	12
67	5190	0.657	12
67	5190	0.657	12
67	5190	0.657	12
67	5190	0.657	12
67	5190	0.657	12
67	5190	0.657	12
67	5190	0.657	12
67	5190	0.657	12
67	5190	0.657	12
67	5190	0.657	12
67	5237	0.662	12
67	5237	0.662	12
67	5237	0.662	12
67	5237	0.662	12
67	5237	0.662	12
67	5237	0.662	12
67	5237	0.662	12
67	5237	0.662	12
67	5237	0.662	12
67	5237	0.662	12
67	5237	0.662	12
67	5237	0.662	12
67	5237	0.662	12
67	5237	0.662	12
67	5237	0.662	12
67	5237	0.662	12
67	5237	0.662	12
67	5237	0.662	12
67	5237	0.662	12
67	5237	0.662	12
67	5237	0.662	12
67	5237	0.662	12
67	5237	0.662	12
67	5237	0.662	12
67	5237	0.662	12
67	5360	0.677	12
67	5360	0.677	12
67	5360	0.677	12
67	5360	0.677	12
67	5360	0.677	12
67	5360	0.677	12
67	5360	0.677	12
67	5360	0.677	12
67	5360	0.677	12
67	5360	0.677	12
67	5360	0.677	12
67	5360	0.677	12
67	5360	0.677	12
67	5360	0.677	12
67	5360	0.677	12
67	5360	0.677	12
67	5360	0.677	12
67	5360	0.677	12
67	5360	0.677	12
67	5360	0.677	12
67	5360	0.677	12
67	5360	0.677	12
67	5360	0.677	12
67	5360	0.677	12
67	5360	0.677	12
67	5406	0.682	12
67	5406	0.682	12
67	5406	0.682	12
67	5406	0.682	12
67	5406	0.682	12
67	5406	0.682	12
67	5406	0.682	12
67	5406	0.682	12
67	5406	0.682	12
67	5406	0.682	12
67	5406	0.682	12
67	5406	0.682	12
67	5406	0.682	12
67	5406	0.682	12
67	5406	0.682	12
67	5406	0.682	12
67	5406	0.682	12
67	5406	0.682	12
67	5406	0.682	12
67	5406	0.682	12
67	5406	0.682	12
67	5406	0.682	12
67	5406	0.682	12
67	5406	0.682	12
67	5406	0.682	12
67	5530	0.697	12
67	5530	0.697	12
67	5530	0.697	12
67	5530	0.697	12
67	5530	0.697	12
67	5530	0.697	12
67	5530	0.697	12
67	5530	0.697	12
67	5530	0.697	12
67	5530	0.697	12
67	5530	0.697	12
67	5530	0.697	12
67	5530	0.697	12
67	5530	0.697	12
67	5530	0.697	12
67	5530	0.697	12
67	5530	0.697	12
67	5530	0.697	12
67	5530	0.697	12
67	5530	0.697	12
67	5530	0.697	12
67	5530	0.697	12
67	5530	0.697	12
67	5530	0.697	12
67	5530	0.697	12
67	5576	0.702	12
67	5576	0.702	12
67	5576	0.702	12
67	5576	0.702	12
67	5576	0.702	12
67	5576	0.702	12
67	5576	0.702	12
67	5576	0.702	12
67	5576	0.702	12
67	5576	0.702	12
67	5576	0.702	12
67	5576	0.702	12
67	5576	0.702	12
67	5576	0.702	12
67	5576	0.702	12
67	5576	0.702	12
67	5576	0.702	12
67	5576	0.702	12
67	5576	0.702	12
67	5576	0.702	12
67	5576	0.702	12
67	5576	0.702	12
67	5576	0.702	12
67	5576	0.702	12
67	5576	0.702	12
67	5699	0.717	12
67	5699	0.717	12
67	5699	0.717	12
67	5699	0.717	12
67	5699	0.717	12
67	5699	0.717	12
67	5699	0.717	12
67	5699	0.717	12
67	5699	0.717	12
67	5699	0.717	12
67	5699	0.717	12
67	5699	0.717	12
67	5699	0.717	12
67	5699	0.717	12
67	5699	0.717	12
67	5699	0.717	12
67	5699	0.717	12
67	5699	0.717	12
67	5699	0.717	12
67	5699	0.717	12
67	5699	0.717	12
67	5699	0.717	12
67	5699	0.717	12
67	5699	0.717	12
67	5699	0.717	12
67	5746	0.722	12
67	5746	0.722	12
67	5746	0.722	12
67	5746	0.722	12
67	5746	0.722	12
67	5746	0.722	12
67	5746	0.722	12
67	5746	0.722	12
67	5746	0.722	12
67	5746	0.722	12
67	5746	0.722	12
67	5746	0.722	12
67	5746	0.722	12
67	5746	0.722	12
67	5746	0.722	12
67	5746	0.722	12
67	5746	0.722	12
67	5746	0.722	12
67	5746	0.722	12
67	5746	0.722	12
67	5746	0.722	12
67	5746	0.722	12
67	5746	0.722	12
67	5746	0.722	12
67	5746	0.722	12
67	5869	0.737	12
67	5869	0.737	12
67	5869	0.737	12
67	5869	0.737	12
67	5869	0.737	12
67	5869	0.737	12
67	5869	0.737	12
67	5869	0.737	12
67	5869	0.737	12
67	5869	0.737	12
67	5869	0.737	12
67	5869	0.737	12
67	5869	0.737	12
67	5869	0.737	12
67	5869	0.737	12
67	5869	0.737	12
67	5869	0.737	12
67	5869	0.737	12
67	5869	0.737	12
67	5869	0.737	12
67	5869	0.737	12
67	5869	0.737	12
67	5869	0.737	12
67	5869	0.737	12
67	5869	0.737	12
67	5915	0.742	12
67	5915	0.742	12
67	5915	0.742	12
67	5915	0.742	12
67	5915	0.742	12
67	5915	0.742	12
67	5915	0.742	12
67	5915	0.742	12
67	5915	0.742	12
67	5915	0.742	12
67	5915	0.742	12
67	5915	0.742	12
67	5915	0.742	12
67	5915	0.742	12
67	5915	0.742	12
67	5915	0.742	12
67	5915	0.742	12
67	5915	0.742	12
67	5915	0.742	12
67	5915	0.742	12
67	5915	0.742	12
67	5915	0.742	12
67	5915	0.742	12
67	5915	0.742	12
67	5915	0.742	12
67	6039	0.757	12
67	6039	0.757	12
67	6039	0.757	12
67	6039	0.757	12
67	6039	0.757	12
67	6039	0.757	12
67	6039	0.757	12
67	6039	0.757	12
67	6039	0.757	12
67	6039	0.757	12
67	6039	0.757	12
67	6039	0.757	12
67	6039	0.757	12
67	6039	0.757	12
67	6039	0.757	12
67	6039	0.757	12
67	6039	0.757	12
67	6039	0.757	12
67	6039	0.757	12
67	6039	0.757	12
67	6039	0.757	12
67	6039	0.757	12
67	6039	0.757	12
67	6039	0.757	12
67	6039	0.757	12
67	6084	0.762	12
67	6084	0.762	12
67	6084	0.762	12
67	6084	0.762	12
67	6084	0.762	12
67	6084	0.762	12
67	6084	0.762	12
67	6084	0.762	12
67	6084	0.762	12
67	6084	0.762	12
67	6084	0.762	12
67	6084	0.762	12
67	6084	0.762	12
67	6084	0.762	12
67	6084	0.762	12
67	6084	0.762	12
67	6084	0.762	12
67	6084	0.762	12
67	6084	0.762	12
67	6084	0.762	12
67	6084	0.762	12
67	6084	0.762	12
67	6084	0.762	12
67	6084	0.762	12
67	6084	0.762	12
67	6207	0.777	12
67	6207	0.777	12
67	6207	0.777	12
67	6207	0.777	12
67	6207	0.777	12
67	6207	0.777	12
67	6207	0.777	12
67	6207	0.777	12
67	6207	0.777	12
67	6207	0.777	12
67	6207	0.777	12
67	6207	0.777	12
67	6207	0.777	12
67	6207	0.777	12
67	6207	0.777	12
67	6207	0.777	12
67	6207	0.777	12
67	6207	0.777	12
67	6207	0.777	12
67	6207	0.777	12
67	6207	0.777	12
67	6207	0.777	12
67	6207	0.777	12
67	6207	0.777	12
67	6207	0.777	12
67	6254	0.782	12
67	6254	0.782	12
67	6254	0.782	12
67	6254	0.782	12
67	6254	0.782	12
67	6254	0.782	12
67	6254	0.782	12
67	6254	0.782	12
67	6254	0.782	12
67	6254	0.782	12
67	6254	0.782	12
67	6254	0.782	12
67	6254	0.782	12
67	6254	0.782	12
67	6254	0.782	12
67	6254	0.782	12
67	6254	0.782	12
67	6254	0.782	12
67	6254	0.782	12
67	6254	0.782	12
67	6254	0.782	12
67	6254	0.782	12
67	6254	0.782	12
67	6254	0.782	12
67	6254	0.782	12
67	6377	0.797	12
67	6377	0.797	12
67	6377	0.797	12
67	6377	0.797	12
67	6377	0.797	12
67	6377	0.797	12
67	6377	0.797	12
67	6377	0.797	12
67	6377	0.797	12
67	6377	0.797	12
67	6377	0.797	12
67	6377	0.797	12
67	6377	0.797	12
67	6377	0.797	12
67	6377	0.797	12
67	6377	0.797	12
67	6377	0.797	12
67	6377	0.797	12
67	6377	0.797	12
67	6377	0.797	12
67	6377	0.797	12
67	6377	0.797	12
67	6377	0.797	12
67	6377	0.797	12
67	6377	0.797	12
67	6424	0.802	12
67	6424	0.802	12
67	6424	0.802	12
67	6424	0.802	12
67	6424	0.802	12
67	6424	0.802	12
67	6424	0.802	12
67	6424	0.802	12
67	6424	0.802	12
67	6424	0.802	12
67	6424	0.802	12
67	6424	0.802	12
67	6424	0.802	12
67	6424	0.802	12
67	6424	0.802	12
67	6424	0.802	12
67	6424	0.802	12
67	6424	0.802	12
67	6424	0.802	12
67	6424	0.802	12
67	6424	0.802	12
67	6424	0.802	12
67	6424	0.802	12
67	6424	0.802	12
67	6424	0.802	12
67	6548	0.817	12
67	6548	0.817	12
67	6548	0.817	12
67	6548	0.817	12
67	6548	0.817	12
67	6548	0.817	12
67	6548	0.817	12
67	6548	0.817	12
67	6548	0.817	12
67	6548	0.817	12
67	6548	0.817	12
67	6548	0.817	12
67	6548	0.817	12
67	6548	0.817	12
67	6548	0.817	12
67	6548	0.817	12
67	6548	0.817	12
67	6548	0.817	12
67	6548	0.817	12
67	6548	0.817	12
67	6548	0.817	12
67	6548	0.817	12
67	6548	0.817	12
67	6548	0.817	12
67	6548	0.817	12
67	6593	0.822	12
67	6593	0.822	12
67	6593	0.822	12
67	6593	0.822	12
67	6593	0.822	12
67	6593	0.822	12
67	6593	0.822	12
67	6593	0.822	12
67	6593	0.822	12
67	6593	0.822	12
67	6593	0.822	12
67	6593	0.822	12
67	6593	0.822	12
67	6593	0.822	12
67	6593	0.822	12
67	6593	0.822	12
67	6593	0.822	12
67	6593	0.822	12
67	6593	0.822	12
67	6593	0.822	12
67	6593	0.822	12
67	6593	0.822	12
67	6593	0.822	12
67	6593	0.822	12
67	6593	0.822	12
67	6716	0.837	12
67	6716	0.837	12
67	6716	0.837	12
67	6716	0.837	12
67	6716	0.837	12
67	6716	0.837	12
67	6716	0.837	12
67	6716	0.837	12
67	6716	0.837	12
67	6716	0.837	12
67	6716	0.837	12
67	6716	0.837	12
67	6716	0.837	12
67	6716	0.837	12
67	6716	0.837	12
67	6716	0.837	12
67	6716	0.837	12
67	6716	0.837	12
67	6716	0.837	12
67	6716	0.837	12
67	6716	0.837	12
67	6716	0.837	12
67	6716	0.837	12
67	6716	0.837	12
67	6716	0.837	12
67	6763	0.842	12
67	6763	0.842	12
67	6763	0.842	12
67	6763	0.842	12
67	6763	0.842	12
67	6763	0.842	12
67	6763	0.842	12
67	6763	0.842	12
67	6763	0.842	12
67	6763	0.842	12
67	6763	0.842	12
67	6763	0.842	12
67	6763	0.842	12
67	6763	0.842	12
67	6763	0.842	12
67	6763	0.842	12
67	6763	0.842	12
67	6763	0.842	12
67	6763	0.842	12
67	6763	0.842	12
67	6763	0.842	12
67	6763	0.842	12
67	6763	0.842	12
67	6763	0.842	12
67	6763	0.842	12
67	6886	0.857	12
67	6886	0.857	12
67	6886	0.857	12
67	6886	0.857	12
67	6886	0.857	12
67	6886	0.857	12
67	6886	0.857	12
67	6886	0.857	12
67	6886	0.857	12
67	6886	0.857	12
67	6886	0.857	12
67	6886	0.857	12
67	6886	0.857	12
67	6886	0.857	12
67	6886	0.857	12
67	6886	0.857	12
67	6886	0.857	12
67	6886	0.857	12
67	6886	0.857	12
67	6886	0.857	12
67	6886	0.857	12
67	6886	0.857	12
67	6886	0.857	12
67	6886	0.857	12
67	6886	0.857	12
67	6932	0.862	12
67	6932	0.862	12
67	6932	0.862	12
67	6932	0.862	12
67	6932	0.862	12
67	6932	0.862	12
67	6932	0.862	12
67	6932	0.862	12
67	6932	0.862	12
67	6932	0.862	12
67	6932	0.862	12
67	6932	0.862	12
67	6932	0.862	12
67	6932	0.862	12
67	6932	0.862	12
67	6932	0.862	12
67	6932	0.862	12
67	6932	0.862	12
67	6932	0.862	12
67	6932	0.862	12
67	6932	0.862	12
67	6932	0.862	12
67	6932	0.862	12
67	6932	0.862	12
67	6932	0.862	12
67	7056	0.877	12
67	7056	0.877	12
67	7056	0.877	12
67	7056	0.877	12
67	7056	0.877	12
67	7056	0.877	12
67	7056	0.877	12
67	7056	0.877	12
67	7056	0.877	12
67	7056	0.877	12
67	7056	0.877	12
67	7056	0.877	12
67	7056	0.877	12
67	7056	0.877	12
67	7056	0.877	12
67	7056	0.877	12
67	7056	0.877	12
67	7056	0.877	12
67	7056	0.877	12
67	7056	0.877	12
67	7056	0.877	12
67	7056	0.877	12
67	7056	0.877	12
67	7056	0.877	12
67	7056	0.877	12
67	7101	0.882	12
67	7101	0.882	12
67	7101	0.882	12
67	7101	0.882	12
67	7101	0.882	12
67	7101	0.882	12
67	7101	0.882	12
67	7101	0.882	12
67	7101	0.882	12
67	7101	0.882	12
67	7101	0.882	12
67	7101	0.882	12
67	7101	0.882	12
67	7101	0.882	12
67	7101	0.882	12
67	7101	0.882	12
67	7101	0.882	12
67	7101	0.882	12
67	7101	0.882	12
67	7101	0.882	12
67	7101	0.882	12
67	7101	0.882	12
67	7101	0.882	12
67	7101	0.882	12
67	7101	0.882	12
67	7224	0.897	12
67	7224	0.897	12
67	7224	0.897	12
67	7224	0.897	12
67	7224	0.897	12
67	7224	0.897	12
67	7224	0.897	12
67	7224	0.897	12
67	7224	0.897	12
67	7224	0.897	12
67	7224	0.897	12
67	7224	0.897	12
67	7224	0.897	12
67	7224	0.897	12
67	7224	0.897	12
67	7224	0.897	12
67	7224	0.897	12
67	7224	0.897	12
67	7224	0.897	12
67	7224	0.897	12
67	7224	0.897	12
67	7224	0.897	12
67	7224	0.897	12
67	7224	0.897	12
67	7224	0.897	12
67	7272	0.902	12
67	7272	0.902	12
67	7272	0.902	12
67	7272	0.902	12
67	7272	0.902	12
67	7272	0.902	12
67	7272	0.902	12
67	7272	0.902	12
67	7272	0.902	12
67	7272	0.902	12
67	7272	0.902	12
67	7272	0.902	12
67	7272	0.902	12
67	7272	0.902	12
67	7272	0.902	12
67	7272	0.902	12
67	7272	0.902	12
67	7272	0.902	12
67	7272	0.902	12
67	7272	0.902	12
67	7272	0.902	12
67	7272	0.902	12
67	7272	0.902	12
67	7272	0.902	12
67	7272	0.902	12
67	7395	0.917	12
67	7395	0.917	12
67	7395	0.917	12
67	7395	0.917	12
67	7395	0.917	12
67	7395	0.917	12
67	7395	0.917	12
67	7395	0.917	12
67	7395	0.917	12
67	7395	0.917	12
67	7395	0.917	12
67	7395	0.917	12
67	7395	0.917	12
67	7395	0.917	12
67	7395	0.917	12
67	7395	0.917	12
67	7395	0.917	12
67	7395	0.917	12
67	7395	0.917	12
67	7395	0.917	12
67	7395	0.917	12
67	7395	0.917	12
67	7395	0.917	12
67	7395	0.917	12
67	7395	0.917	12
67	7441	0.922	12
67	7441	0.922	12
67	7441	0.922	12
67	7441	0.922	12
67	7441	0.922	12
67	7441	0.922	12
67	7441	0.922	12
67	7441	0.922	12
67	7441	0.922	12
67	7441	0.922	12
67	7441	0.922	12
67	7441	0.922	12
67	7441	0.922	12
67	7441	0.922	12
67	7441	0.922	12
67	7441	0.922	12
67	7441	0.922	12
67	7441	0.922	12
67	7441	0.922	12
67	7441	0.922	12
67	7441	0.922	12
67	7441	0.922	12
67	7441	0.922	12
67	7441	0.922	12
67	7441	0.922	12
67	7565	0.937	12
67	7565	0.937	12
67	7565	0.937	12
67	7565	0.937	12
67	7565	0.937	12
67	7565	0.937	12
67	7565	0.937	12
67	7565	0.937	12
67	7565	0.937	12
67	7565	0.937	12
67	7565	0.937	12
67	7565	0.937	12
67	7565	0.937	12
67	7565	0.937	12
67	7565	0.937	12
67	7565	0.937	12
67	7565	0.937	12
67	7565	0.937	12
67	7565	0.937	12
67	7565	0.937	12
67	7565	0.937	12
67	7565	0.937	12
67	7565	0.937	12
67	7565	0.937	12
67	7565	0.937	12
67	7610	0.942	12
67	7610	0.942	12
67	7610	0.942	12
67	7610	0.942	12
67	7610	0.942	12
67	7610	0.942	12
67	7610	0.942	12
67	7610	0.942	12
67	7610	0.942	12
67	7610	0.942	12
67	7610	0.942	12
67	7610	0.942	12
67	7610	0.942	12
67	7610	0.942	12
67	7610	0.942	12
67	7610	0.942	12
67	7610	0.942	12
67	7610	0.942	12
67	7610	0.942	12
67	7610	0.942	12
67	7610	0.942	12
67	7610	0.942	12
67	7610	0.942	12
67	7610	0.942	12
67	7610	0.942	12
67	7733	0.957	12
67	7733	0.957	12
67	7733	0.957	12
67	7733	0.957	12
67	7733	0.957	12
67	7733	0.957	12
67	7733	0.957	12
67	7733	0.957	12
67	7733	0.957	12
67	7733	0.957	12
67	7733	0.957	12
67	7733	0.957	12
67	7733	0.957	12
67	7733	0.957	12
67	7733	0.957	12
67	7733	0.957	12
67	7733	0.957	12
67	7733	0.957	12
67	7733	0.957	12
67	7733	0.957	12
67	7733	0.957	12
67	7733	0.957	12
67	7733	0.957	12
67	7733	0.957	12
67	7733	0.957	12
67	7780	0.962	12
67	7780	0.962	12
67	7780	0.962	12
67	7780	0.962	12
67	7780	0.962	12
67	7780	0.962	12
67	7780	0.962	12
67	7780	0.962	12
67	7780	0.962	12
67	7780	0.962	12
67	7780	0.962	12
67	7780	0.962	12
67	7780	0.962	12
67	7780	0.962	12
67	7780	0.962	12
67	7780	0.962	12
67	7780	0.962	12
67	7780	0.962	12
67	7780	0.962	12
67	7780	0.962	12
67	7780	0.962	12
67	7780	0.962	12
67	7780	0.962	12
67	7780	0.962	12
67	7780	0.962	12
67	7903	0.977	12
67	7903	0.977	12
67	7903	0.977	12
67	7903	0.977	12
67	7903	0.977	12
67	7903	0.977	12
67	7903	0.977	12
67	7903	0.977	12
67	7903	0.977	12
67	7903	0.977	12
67	7903	0.977	12
67	7903	0.977	12
67	7903	0.977	12
67	7903	0.977	12
67	7903	0.977	12
67	7903	0.977	12
67	7903	0.977	12
67	7903	0.977	12
67	7903	0.977	12
67	7903	0.977	12
67	7903	0.977	12
67	7903	0.977	12
67	7903	0.977	12
67	7903	0.977	12
67	7903	0.977	12
67	7949	0.982	12
67	7949	0.982	12
67	7949	0.982	12
67	7949	0.982	12
67	7949	0.982	12
67	7949	0.982	12
67	7949	0.982	12
67	7949	0.982	12
67	7949	0.982	12
67	7949	0.982	12
67	7949	0.982	12
67	7949	0.982	12
67	7949	0.982	12
67	7949	0.982	12
67	7949	0.982	12
67	7949	0.982	12
67	7949	0.982	12
67	7949	0.982	12
67	7949	0.982	12
67	7949	0.982	12
67	7949	0.982	12
67	7949	0.982	12
67	7949	0.982	12
67	7949	0.982	12
67	7949	0.982	12
67	8073	0.997	12
67	8073	0.997	12
67	8073	0.997	12
67	8073	0.997	12
67	8073	0.997	12
67	8073	0.997	12
67	8073	0.997	12
67	8073	0.997	12
67	8073	0.997	12
67	8073	0.997	12
67	8073	0.997	12
67	8073	0.997	12
67	8073	0.997	12
67	8073	0.997	12
67	8073	0.997	12
67	8073	0.997	12
67	8073	0.997	12
67	8073	0.997	12
67	8073	0.997	12
67	8073	0.997	12
67	8073	0.997	12
67	8073	0.997	12
67	8073	0.997	12
67	8073	0.997	12
67	8073	0.997	12
67	8125	1.002	12
67	8125	1.002	12
67	8125	1.002	12
67	8125	1.002	12
67	8125	1.002	12
67	8125	1.002	12
67	8125	1.002	12
67	8125	1.002	12
67	8125	1.002	12
67	8125	1.002	12
67	8125	1.002	12
67	8125	1.002	12
67	8125	1.002	12
67	8125	1.002	12
67	8125	1.002	12
67	8125	1.002	12
67	8125	1.002	12
67	8125	1.002	12
67	8125	1.002	12
67	8125	1.002	12
67	8125	1.002	12
67	8125	1.002	12
67	8125	1.002	12
67	8125	1.002	12
67	8125	1.002	12
67	8248	1.017	12
67	8248	1.017	12
67	8248	1.017	12
67	8248	1.017	12
67	8248	1.017	12
67	8248	1.017	12
67	8248	1.017	12
67	8248	1.017	12
67	8248	1.017	12
67	8248	1.017	12
67	8248	1.017	12
67	8248	1.017	12
67	8248	1.017	12
67	8248	1.017	12
67	8248	1.017	12
67	8248	1.017	12
67	8248	1.017	12
67	8248	1.017	12
67	8248	1.017	12
67	8248	1.017	12
67	8248	1.017	12
67	8248	1.017	12
67	8248	1.017	12
67	8248	1.017	12
67	8248	1.017	12
67	8295	1.022	12
67	8295	1.022	12
67	8295	1.022	12
67	8295	1.022	12
67	8295	1.022	12
67	8295	1.022	12
67	8295	1.022	12
67	8295	1.022	12
67	8295	1.022	12
67	8295	1.022	12
67	8295	1.022	12
67	8295	1.022	12
67	8295	1.022	12
67	8295	1.022	12
67	8295	1.022	12
67	8295	1.022	12
67	8295	1.022	12
67	8295	1.022	12
67	8295	1.022	12
67	8295	1.022	12
67	8295	1.022	12
67	8295	1.022	12
67	8295	1.022	12
67	8295	1.022	12
67	8295	1.022	12
67	8418	1.037	12
67	8418	1.037	12
67	8418	1.037	12
67	8418	1.037	12
67	8418	1.037	12
67	8418	1.037	12
67	8418	1.037	12
67	8418	1.037	12
67	8418	1.037	12
67	8418	1.037	12
67	8418	1.037	12
67	8418	1.037	12
67	8418	1.037	12
67	8418	1.037	12
67	8418	1.037	12
67	8418	1.037	12
67	8418	1.037	12
67	8418	1.037	12
67	8418	1.037	12
67	8418	1.037	12
67	8418	1.037	12
67	8418	1.037	12
67	8418	1.037	12
67	8418	1.037	12
67	8418	1.037	12
67	8464	1.042	12
67	8464	1.042	12
67	8464	1.042	12
67	8464	1.042	12
67	8464	1.042	12
67	8464	1.042	12
67	8464	1.042	12
67	8464	1.042	12
67	8464	1.042	12
67	8464	1.042	12
67	8464	1.042	12
67	8464	1.042	12
67	8464	1.042	12
67	8464	1.042	12
67	8464	1.042	12
67	8464	1.042	12
67	8464	1.042	12
67	8464	1.042	12
67	8464	1.042	12
67	8464	1.042	12
67	8464	1.042	12
67	8464	1.042	12
67	8464	1.042	12
67	8464	1.042	12
67	8464	1.042	12
67	8590	1.057	12
67	8590	1.057	12
67	8590	1.057	12
67	8590	1.057	12
67	8590	1.057	12
67	8590	1.057	12
67	8590	1.057	12
67	8590	1.057	12
67	8590	1.057	12
67	8590	1.057	12
67	8590	1.057	12
67	8590	1.057	12
67	8590	1.057	12
67	8590	1.057	12
67	8590	1.057	12
67	8590	1.057	12
67	8590	1.057	12
67	8590	1.057	12
67	8590	1.057	12
67	8590	1.057	12
67	8590	1.057	12
67	8590	1.057	12
67	8590	1.057	12
67	8590	1.057	12
67	8590	1.057	12
67	8635	1.062	12
67	8635	1.062	12
67	8635	1.062	12
67	8635	1.062	12
67	8635	1.062	12
67	8635	1.062	12
67	8635	1.062	12
67	8635	1.062	12
67	8635	1.062	12
67	8635	1.062	12
67	8635	1.062	12
67	8635	1.062	12
67	8635	1.062	12
67	8635	1.062	12
67	8635	1.062	12
67	8635	1.062	12
67	8635	1.062	12
67	8635	1.062	12
67	8635	1.062	12
67	8635	1.062	12
67	8635	1.062	12
67	8635	1.062	12
67	8635	1.062	12
67	8635	1.062	12
67	8635	1.062	12
67	8758	1.077	12
67	8758	1.077	12
67	8758	1.077	12
67	8758	1.077	12
67	8758	1.077	12
67	8758	1.077	12
67	8758	1.077	12
67	8758	1.077	12
67	8758	1.077	12
67	8758	1.077	12
67	8758	1.077	12
67	8758	1.077	12
67	8758	1.077	12
67	8758	1.077	12
67	8758	1.077	12
67	8758	1.077	12
67	8758	1.077	12
67	8758	1.077	12
67	8758	1.077	12
67	8758	1.077	12
67	8758	1.077	12
67	8758	1.077	12
67	8758	1.077	12
67	8758	1.077	12
67	8758	1.077	12
67	8805	1.082	12
67	8805	1.082	12
67	8805	1.082	12
67	8805	1.082	12
67	8805	1.082	12
67	8805	1.082	12
67	8805	1.082	12
67	8805	1.082	12
67	8805	1.082	12
67	8805	1.082	12
67	8805	1.082	12
67	8805	1.082	12
67	8805	1.082	12
67	8805	1.082	12
67	8805	1.082	12
67	8805	1.082	12
67	8805	1.082	12
67	8805	1.082	12
67	8805	1.082	12
67	8805	1.082	12
67	8805	1.082	12
67	8805	1.082	12
67	8805	1.082	12
67	8805	1.082	12
67	8805	1.082	12
67	8928	1.097	12
67	8928	1.097	12
67	8928	1.097	12
67	8928	1.097	12
67	8928	1.097	12
67	8928	1.097	12
67	8928	1.097	12
67	8928	1.097	12
67	8928	1.097	12
67	8928	1.097	12
67	8928	1.097	12
67	8928	1.097	12
67	8928	1.097	12
67	8928	1.097	12
67	8928	1.097	12
67	8928	1.097	12
67	8928	1.097	12
67	8928	1.097	12
67	8928	1.097	12
67	8928	1.097	12
67	8928	1.097	12
67	8928	1.097	12
67	8928	1.097	12
67	8928	1.097	12
67	8928	1.097	12
67	8975	1.102	12
67	8975	1.102	12
67	8975	1.102	12
67	8975	1.102	12
67	8975	1.102	12
67	8975	1.102	12
67	8975	1.102	12
67	8975	1.102	12
67	8975	1.102	12
67	8975	1.102	12
67	8975	1.102	12
67	8975	1.102	12
67	8975	1.102	12
67	8975	1.102	12
67	8975	1.102	12
67	8975	1.102	12
67	8975	1.102	12
67	8975	1.102	12
67	8975	1.102	12
67	8975	1.102	12
67	8975	1.102	12
67	8975	1.102	12
67	8975	1.102	12
67	8975	1.102	12
67	8975	1.102	12
67	9099	1.117	12
67	9099	1.117	12
67	9099	1.117	12
67	9099	1.117	12
67	9099	1.117	12
67	9099	1.117	12
67	9099	1.117	12
67	9099	1.117	12
67	9099	1.117	12
67	9099	1.117	12
67	9099	1.117	12
67	9099	1.117	12
67	9099	1.117	12
67	9099	1.117	12
67	9099	1.117	12
67	9099	1.117	12
67	9099	1.117	12
67	9099	1.117	12
67	9099	1.117	12
67	9099	1.117	12
67	9099	1.117	12
67	9099	1.117	12
67	9099	1.117	12
67	9099	1.117	12
67	9099	1.117	12
67	9144	1.122	12
67	9144	1.122	12
67	9144	1.122	12
67	9144	1.122	12
67	9144	1.122	12
67	9144	1.122	12
67	9144	1.122	12
67	9144	1.122	12
67	9144	1.122	12
67	9144	1.122	12
67	9144	1.122	12
67	9144	1.122	12
67	9144	1.122	12
67	9144	1.122	12
67	9144	1.122	12
67	9144	1.122	12
67	9144	1.122	12
67	9144	1.122	12
67	9144	1.122	12
67	9144	1.122	12
67	9144	1.122	12
67	9144	1.122	12
67	9144	1.122	12
67	9144	1.122	12
67	9144	1.122	12
67	9267	1.137	12
67	9267	1.137	12
67	9267	1.137	12
67	9267	1.137	12
67	9267	1.137	12
67	9267	1.137	12
67	9267	1.137	12
67	9267	1.137	12
67	9267	1.137	12
67	9267	1.137	12
67	9267	1.137	12
67	9267	1.137	12
67	9267	1.137	12
67	9267	1.137	12
67	9267	1.137	12
67	9267	1.137	12
67	9267	1.137	12
67	9267	1.137	12
67	9267	1.137	12
67	9267	1.137	12
67	9267	1.137	12
67	9267	1.137	12
67	9267	1.137	12
67	9267	1.137	12
67	9267	1.137	12
67	9314	1.142	12
67	9314	1.142	12
67	9314	1.142	12
67	9314	1.142	12
67	9314	1.142	12
67	9314	1.142	12
67	9314	1.142	12
67	9314	1.142	12
67	9314	1.142	12
67	9314	1.142	12
67	9314	1.142	12
67	9314	1.142	12
67	9314	1.142	12
67	9314	1.142	12
67	9314	1.142	12
67	9314	1.142	12
67	9314	1.142	12
67	9314	1.142	12
67	9314	1.142	12
67	9314	1.142	12
67	9314	1.142	12
67	9314	1.142	12
67	9314	1.142	12
67	9314	1.142	12
67	9314	1.142	12
67	9437	1.157	12
67	9437	1.157	12
67	9437	1.157	12
67	9437	1.157	12
67	9437	1.157	12
67	9437	1.157	12
67	9437	1.157	12
67	9437	1.157	12
67	9437	1.157	12
67	9437	1.157	12
67	9437	1.157	12
67	9437	1.157	12
67	9437	1.157	12
67	9437	1.157	12
67	9437	1.157	12
67	9437	1.157	12
67	9437	1.157	12
67	9437	1.157	12
67	9437	1.157	12
67	9437	1.157	12
67	9437	1.157	12
67	9437	1.157	12
67	9437	1.157	12
67	9437	1.157	12
67	9437	1.157	12
67	9483	1.162	12
67	9483	1.162	12
67	9483	1.162	12
67	9483	1.162	12
67	9483	1.162	12
67	9483	1.162	12
67	9483	1.162	12
67	9483	1.162	12
67	9483	1.162	12
67	9483	1.162	12
67	9483	1.162	12
67	9483	1.162	12
67	9483	1.162	12
67	9483	1.162	12
67	9483	1.162	12
67	9483	1.162	12
67	9483	1.162	12
67	9483	1.162	12
67	9483	1.162	12
67	9483	1.162	12
67	9483	1.162	12
67	9483	1.162	12
67	9483	1.162	12
67	9483	1.162	12
67	9483	1.162	12
67	9607	1.177	12
67	9607	1.177	12
67	9607	1.177	12
67	9607	1.177	12
67	9607	1.177	12
67	9607	1.177	12
67	9607	1.177	12
67	9607	1.177	12
67	9607	1.177	12
67	9607	1.177	12
67	9607	1.177	12
67	9607	1.177	12
67	9607	1.177	12
67	9607	1.177	12
67	9607	1.177	12
67	9607	1.177	12
67	9607	1.177	12
67	9607	1.177	12
67	9607	1.177	12
67	9607	1.177	12
67	9607	1.177	12
67	9607	1.177	12
67	9607	1.177	12
67	9607	1.177	12
67	9607	1.177	12
67	9652	1.182	12
67	9652	1.182	12
67	9652	1.182	12
67	9652	1.182	12
67	9652	1.182	12
67	9652	1.182	12
67	9652	1.182	12
67	9652	1.182	12
67	9652	1.182	12
67	9652	1.182	12
67	9652	1.182	12
67	9652	1.182	12
67	9652	1.182	12
67	9652	1.182	12
67	9652	1.182	12
67	9652	1.182	12
67	9652	1.182	12
67	9652	1.182	12
67	9652	1.182	12
67	9652	1.182	12
67	9652	1.182	12
67	9652	1.182	12
67	9652	1.182	12
67	9652	1.182	12
67	9652	1.182	12
67	9775	1.197	12
67	9775	1.197	12
67	9775	1.197	12
67	9775	1.197	12
67	9775	1.197	12
67	9775	1.197	12
67	9775	1.197	12
67	9775	1.197	12
67	9775	1.197	12
67	9775	1.197	12
67	9775	1.197	12
67	9775	1.197	12
67	9775	1.197	12
67	9775	1.197	12
67	9775	1.197	12
67	9775	1.197	12
67	9775	1.197	12
67	9775	1.197	12
67	9775	1.197	12
67	9775	1.197	12
67	9775	1.197	12
67	9775	1.197	12
67	9775	1.197	12
67	9775	1.197	12
67	9775	1.197	12
67	9823	1.202	12
67	9823	1.202	12
67	9823	1.202	12
67	9823	1.202	12
67	9823	1.202	12
67	9823	1.202	12
67	9823	1.202	12
67	9823	1.202	12
67	9823	1.202	12
67	9823	1.202	12
67	9823	1.202	12
67	9823	1.202	12
67	9823	1.202	12
67	9823	1.202	12
67	9823	1.202	12
67	9823	1.202	12
67	9823	1.202	12
67	9823	1.202	12
67	9823	1.202	12
67	9823	1.202	12
67	9823	1.202	12
67	9823	1.202	12
67	9823	1.202	12
67	9823	1.202	12
67	9823	1.202	12
67	9946	1.217	12
67	9946	1.217	12
67	9946	1.217	12
67	9946	1.217	12
67	9946	1.217	12
67	9946	1.217	12
67	9946	1.217	12
67	9946	1.217	12
67	9946	1.217	12
67	9946	1.217	12
67	9946	1.217	12
67	9946	1.217	12
67	9946	1.217	12
67	9946	1.217	12
67	9946	1.217	12
67	9946	1.217	12
67	9946	1.217	12
67	9946	1.217	12
67	9946	1.217	12
67	9946	1.217	12
67	9946	1.217	12
67	9946	1.217	12
67	9946	1.217	12
67	9946	1.217	12
67	9946	1.217	12
67	9992	1.222	12
67	9992	1.222	12
67	9992	1.222	12
67	9992	1.222	12
67	9992	1.222	12
67	9992	1.222	12
67	9992	1.222	12
67	9992	1.222	12
67	9992	1.222	12
67	9992	1.222	12
67	9992	1.222	12
67	9992	1.222	12
67	9992	1.222	12
67	9992	1.222	12
67	9992	1.222	12
67	9992	1.222	12
67	9992	1.222	12
67	9992	1.222	12
67	9992	1.222	12
67	9992	1.222	12
67	9992	1.222	12
67	9992	1.222	12
67	9992	1.222	12
67	9992	1.222	12
67	9992	1.222	12
67	10116	1.237	12
67	10116	1.237	12
67	10116	1.237	12
67	10116	1.237	12
67	10116	1.237	12
67	10116	1.237	12
67	10116	1.237	12
67	10116	1.237	12
67	10116	1.237	12
67	10116	1.237	12
67	10116	1.237	12
67	10116	1.237	12
67	10116	1.237	12
67	10116	1.237	12
67	10116	1.237	12
67	10116	1.237	12
67	10116	1.237	12
67	10116	1.237	12
67	10116	1.237	12
67	10116	1.237	12
67	10116	1.237	12
67	10116	1.237	12
67	10116	1.237	12
67	10116	1.237	12
67	10116	1.237	12
67	10161	1.242	12
67	10161	1.242	12
67	10161	1.242	12
67	10161	1.242	12
67	10161	1.242	12
67	10161	1.242	12
67	10161	1.242	12
67	10161	1.242	12
67	10161	1.242	12
67	10161	1.242	12
67	10161	1.242	12
67	10161	1.242	12
67	10161	1.242	12
67	10161	1.242	12
67	10161	1.242	12
67	10161	1.242	12
67	10161	1.242	12
67	10161	1.242	12
67	10161	1.242	12
67	10161	1.242	12
67	10161	1.242	12
67	10161	1.242	12
67	10161	1.242	12
67	10161	1.242	12
67	10161	1.242	12
67	10284	1.257	12
67	10284	1.257	12
67	10284	1.257	12
67	10284	1.257	12
67	10284	1.257	12
67	10284	1.257	12
67	10284	1.257	12
67	10284	1.257	12
67	10284	1.257	12
67	10284	1.257	12
67	10284	1.257	12
67	10284	1.257	12
67	10284	1.257	12
67	10284	1.257	12
67	10284	1.257	12
67	10284	1.257	12
67	10284	1.257	12
67	10284	1.257	12
67	10284	1.257	12
67	10284	1.257	12
67	10284	1.257	12
67	10284	1.257	12
67	10284	1.257	12
67	10284	1.257	12
67	10284	1.257	12
67	10331	1.262	12
67	10331	1.262	12
67	10331	1.262	12
67	10331	1.262	12
67	10331	1.262	12
67	10331	1.262	12
67	10331	1.262	12
67	10331	1.262	12
67	10331	1.262	12
67	10331	1.262	12
67	10331	1.262	12
67	10331	1.262	12
67	10331	1.262	12
67	10331	1.262	12
67	10331	1.262	12
67	10331	1.262	12
67	10331	1.262	12
67	10331	1.262	12
67	10331	1.262	12
67	10331	1.262	12
67	10331	1.262	12
67	10331	1.262	12
67	10331	1.262	12
67	10331	1.262	12
67	10331	1.262	12
67	10454	1.277	12
67	10454	1.277	12
67	10454	1.277	12
67	10454	1.277	12
67	10454	1.277	12
67	10454	1.277	12
67	10454	1.277	12
67	10454	1.277	12
67	10454	1.277	12
67	10454	1.277	12
67	10454	1.277	12
67	10454	1.277	12
67	10454	1.277	12
67	10454	1.277	12
67	10454	1.277	12
67	10454	1.277	12
67	10454	1.277	12
67	10454	1.277	12
67	10454	1.277	12
67	10454	1.277	12
67	10454	1.277	12
67	10454	1.277	12
67	10454	1.277	12
67	10454	1.277	12
67	10454	1.277	12
67	10500	1.282	12
67	10500	1.282	12
67	10500	1.282	12
67	10500	1.282	12
67	10500	1.282	12
67	10500	1.282	12
67	10500	1.282	12
67	10500	1.282	12
67	10500	1.282	12
67	10500	1.282	12
67	10500	1.282	12
67	10500	1.282	12
67	10500	1.282	12
67	10500	1.282	12
67	10500	1.282	12
67	10500	1.282	12
67	10500	1.282	12
67	10500	1.282	12
67	10500	1.282	12
67	10500	1.282	12
67	10500	1.282	12
67	10500	1.282	12
67	10500	1.282	12
67	10500	1.282	12
67	10500	1.282	12
67	10624	1.297	12
67	10624	1.297	12
67	10624	1.297	12
67	10624	1.297	12
67	10624	1.297	12
67	10624	1.297	12
67	10624	1.297	12
67	10624	1.297	12
67	10624	1.297	12
67	10624	1.297	12
67	10624	1.297	12
67	10624	1.297	12
67	10624	1.297	12
67	10624	1.297	12
67	10624	1.297	12
67	10624	1.297	12
67	10624	1.297	12
67	10624	1.297	12
67	10624	1.297	12
67	10624	1.297	12
67	10624	1.297	12
67	10624	1.297	12
67	10624	1.297	12
67	10624	1.297	12
67	10624	1.297	12
67	10670	1.302	12
67	10670	1.302	12
67	10670	1.302	12
67	10670	1.302	12
67	10670	1.302	12
67	10670	1.302	12
67	10670	1.302	12
67	10670	1.302	12
67	10670	1.302	12
67	10670	1.302	12
67	10670	1.302	12
67	10670	1.302	12
67	10670	1.302	12
67	10670	1.302	12
67	10670	1.302	12
67	10670	1.302	12
67	10670	1.302	12
67	10670	1.302	12
67	10670	1.302	12
67	10670	1.302	12
67	10670	1.302	12
67	10670	1.302	12
67	10670	1.302	12
67	10670	1.302	12
67	10670	1.302	12
67	10793	1.317	12
67	10793	1.317	12
67	10793	1.317	12
67	10793	1.317	12
67	10793	1.317	12
67	10793	1.317	12
67	10793	1.317	12
67	10793	1.317	12
67	10793	1.317	12
67	10793	1.317	12
67	10793	1.317	12
67	10793	1.317	12
67	10793	1.317	12
67	10793	1.317	12
67	10793	1.317	12
67	10793	1.317	12
67	10793	1.317	12
67	10793	1.317	12
67	10793	1.317	12
67	10793	1.317	12
67	10793	1.317	12
67	10793	1.317	12
67	10793	1.317	12
67	10793	1.317	12
67	10793	1.317	12
67	10840	1.322	12
67	10840	1.322	12
67	10840	1.322	12
67	10840	1.322	12
67	10840	1.322	12
67	10840	1.322	12
67	10840	1.322	12
67	10840	1.322	12
67	10840	1.322	12
67	10840	1.322	12
67	10840	1.322	12
67	10840	1.322	12
67	10840	1.322	12
67	10840	1.322	12
67	10840	1.322	12
[...]
140	174575	16.243	0.014
140	174871	16.263	0.014
140	175173	16.283	0.014
140	175474	16.303	0.014
140	175770	16.323	0.014
140	176072	16.343	0.014
140	176372	16.363	0.014
141	168271	15.823	39
141	168567	15.843	39
141	168869	15.863	39
141	169169	15.883	39
141	169466	15.903	39
141	169768	15.923	39
141	170068	15.943	39
141	170364	15.963	39
141	170666	15.983	39
141	170979	16.003	39
141	171275	16.023	39
141	171577	16.043	39
141	171879	16.063	39
141	172175	16.083	39
141	172478	16.103	39
141	172778	16.123	39
141	173074	16.143	39
141	173376	16.163	39
141	173676	16.183	39
141	173973	16.203	39
141	174275	16.223	39
141	174575	16.243	39
141	174871	16.263	39
141	175173	16.283	39
141	175474	16.303	39
141	175770	16.323	39
141	176072	16.343	39
141	176372	16.363	39
142	168271	15.823	1
142	168271	15.823	1
142	168271	15.823	1
142	168271	15.823	1
142	168271	15.823	1
142	168271	15.823	1
142	168271	15.823	1
142	168271	15.823	1
142	168271	15.823	1
142	168271	15.823	1
142	168271	15.823	1
142	168271	15.823	1
142	168271	15.823	1
142	168271	15.823	1
142	168271	15.823	1
142	168271	15.823	1
142	168271	15.823	1
142	168271	15.823	1
142	168271	15.823	1
142	168271	15.823	1
142	168271	15.823	1
142	168271	15.823	1
142	168271	15.823	1
142	168271	15.823	1
142	168271	15.823	1
142	168271	15.823	1
142	168271	15.823	1
142	168271	15.823	1
142	168271	15.823	1
142	168271	15.823	1
142	168271	15.823	1
142	168271	15.823	1
142	168271	15.823	1
142	168271	15.823	1
142	168271	15.823	1
142	168271	15.823	1
142	168271	15.823	1
142	168271	15.823	1
142	168271	15.823	1
142	168271	15.823	1
142	168271	15.823	1
142	168271	15.823	1
142	168271	15.823	1
142	168271	15.823	1
142	168271	15.823	1
142	168271	15.823	1
142	168271	15.823	1
142	168271	15.823	1
142	168271	15.823	1
142	168271	15.823	1
142	168271	15.823	1
142	168271	15.823	1
142	168271	15.823	1
142	168271	15.823	1
142	168271	15.823	1
142	168271	15.823	1
142	168271	15.823	1
142	168271	15.823	1
142	168271	15.823	1
142	168271	15.823	1
142	168271	15.823	1
142	168271	15.823	1
142	168271	15.823	1
142	168271	15.823	1
142	168271	15.823	1
142	168271	15.823	1
142	168271	15.823	1
142	168271	15.823	1
142	168271	15.823	1
142	168271	15.823	1
142	168271	15.823	1
142	168271	15.823	1
142	168271	15.823	1
142	168271	15.823	1
142	168271	15.823	1
142	168271	15.823	1
142	168271	15.823	1
142	168271	15.823	1
142	168271	15.823	1
142	168271	15.823	1
142	168271	15.823	1
142	168271	15.823	1
142	168271	15.823	1
142	168271	15.823	1
142	168271	15.823	1
142	168271	15.823	1
142	168271	15.823	1
142	168271	15.823	1
142	168271	15.823	1
142	168271	15.823	1
142	168271	15.823	1
142	168271	15.823	1
142	168271	15.823	1
142	168271	15.823	1
142	168271	15.823	1
142	168271	15.823	1
142	168271	15.823	1
142	168271	15.823	1
142	168271	15.823	1
142	168271	15.823	1
142	168271	15.823	1
142	168271	15.823	1
142	168271	15.823	1
142	168271	15.823	1
142	168271	15.823	1
142	168271	15.823	1
142	168271	15.823	1
142	168271	15.823	1
142	168271	15.823	1
142	168271	15.823	1
142	168271	15.823	1
142	168271	15.823	1
142	168271	15.823	1
142	168271	15.823	1
142	168271	15.823	1
142	168271	15.823	1
142	168271	15.823	1
142	168271	15.823	1
142	168271	15.823	1
142	168271	15.823	1
142	168271	15.823	1
142	168271	15.823	1
142	168271	15.823	1
142	168271	15.823	1
142	168271	15.823	1
142	168271	15.823	1
142	168271	15.823	1
142	168271	15.823	1
142	168271	15.823	1
142	168271	15.823	1
142	168271	15.823	1
142	168271	15.823	1
142	168271	15.823	1
142	168271	15.823	1
142	168271	15.823	1
142	168271	15.823	1
142	168271	15.823	1
142	168271	15.823	1
142	168271	15.823	1
142	168271	15.823	1
142	168271	15.823	1
142	168271	15.823	1
142	168271	15.823	1
142	168271	15.823	1
142	168271	15.823	1
142	168271	15.823	1
142	168271	15.823	1
142	168271	15.823	1
142	168271	15.823	1
142	168271	15.823	1
142	168271	15.823	1
142	168271	15.823	1
142	168271	15.823	1
142	168271	15.823	1
142	168271	15.823	1
142	168271	15.823	1
142	168271	15.823	1
142	168271	15.823	1
142	168271	15.823	1
142	168271	15.823	1
142	168271	15.823	1
142	168271	15.823	1
142	168271	15.823	1
142	168271	15.823	1
142	168271	15.823	1
142	168271	15.823	1
142	168271	15.823	1
142	168271	15.823	1
142	168271	15.823	1
142	168271	15.823	1
142	168271	15.823	1
142	168271	15.823	1
142	168271	15.823	1
142	168271	15.823	1
142	168271	15.823	1
142	168271	15.823	1
142	168271	15.823	1
142	168271	15.823	1
142	168271	15.823	1
142	168271	15.823	1
142	168271	15.823	1
142	168271	15.823	1
142	168271	15.823	1
142	168271	15.823	1
142	168271	15.823	1
142	168271	15.823	1
142	168271	15.823	1
142	168271	15.823	1
142	168271	15.823	1
142	168271	15.823	1
142	168271	15.823	1
142	168271	15.823	1
142	168271	15.823	1
142	168271	15.823	1
142	168271	15.823	1
142	168271	15.823	1
142	168271	15.823	1
142	168271	15.823	1
142	168271	15.823	1
142	168271	15.823	1
142	168271	15.823	1
142	168271	15.823	1
142	168271	15.823	1
142	168271	15.823	1
142	168271	15.823	1
142	168271	15.823	1
142	168271	15.823	1
142	168271	15.823	1
142	168271	15.823	1
142	168271	15.823	1
142	168271	15.823	1
142	168271	15.823	1
142	168271	15.823	1
142	168271	15.823	1
142	168271	15.823	1
142	168271	15.823	1
142	168271	15.823	1
142	168271	15.823	1
142	168271	15.823	1
142	168271	15.823	1
142	168271	15.823	1
142	168271	15.823	1
142	168271	15.823	1
142	168271	15.823	1
142	168271	15.823	1
142	168271	15.823	1
142	168271	15.823	1
142	168271	15.823	1
142	168271	15.823	1
142	168271	15.823	1
142	168271	15.823	1
142	168271	15.823	1
142	168271	15.823	1
142	168271	15.823	1
142	168271	15.823	1
142	168271	15.823	1
142	168271	15.823	1
142	168271	15.823	1
142	168271	15.823	1
142	168271	15.823	1
142	168271	15.823	1
142	168271	15.823	1
142	168271	15.823	1
142	168271	15.823	1
142	168271	15.823	1
142	168271	15.823	1
142	168271	15.823	1
142	168271	15.823	1
142	168271	15.823	1
142	168271	15.823	1
142	168271	15.823	1
142	168271	15.823	1
142	168271	15.823	1
142	168271	15.823	1
142	168271	15.823	1
142	168271	15.823	1
142	168271	15.823	1
142	168271	15.823	1
142	168271	15.823	1
142	168271	15.823	1
142	168271	15.823	1
142	168271	15.823	1
142	168271	15.823	1
142	168271	15.823	1
142	168271	15.823	1
142	168271	15.823	1
142	168271	15.823	1
142	168271	15.823	1
142	168271	15.823	1
142	168271	15.823	1
142	168271	15.823	1
142	168271	15.823	1
142	168271	15.823	1
142	168271	15.823	1
142	168271	15.823	1
142	168271	15.823	1
142	168271	15.823	1
142	168271	15.823	1
142	168271	15.823	1
142	168271	15.823	1
142	168271	15.823	1
142	168271	15.823	1
142	168271	15.823	1
142	168271	15.823	1
142	168271	15.823	1
142	168271	15.823	1
142	168271	15.823	1
142	168271	15.823	1
142	168271	15.823	1
142	168271	15.823	1
142	168271	15.823	1
142	168271	15.823	1
142	168271	15.823	1
142	168271	15.823	1
142	168271	15.823	1
142	168271	15.823	1
142	168271	15.823	1
142	168271	15.823	1
142	168271	15.823	1
142	168271	15.823	1
142	168271	15.823	1
142	168271	15.823	1
142	168271	15.823	1
142	168271	15.823	1
142	168271	15.823	1
142	168271	15.823	1
142	168271	15.823	1
142	168271	15.823	1
142	168271	15.823	1
142	168271	15.823	1
142	168271	15.823	1
142	168271	15.823	1
142	168271	15.823	1
142	168271	15.823	1
142	168271	15.823	1
142	168271	15.823	1
142	168271	15.823	1
142	168271	15.823	1
142	168271	15.823	1
142	168271	15.823	1
142	168271	15.823	1
142	168271	15.823	1
142	168271	15.823	1
142	168271	15.823	1
142	168271	15.823	1
142	168271	15.823	1
142	168271	15.823	1
142	168271	15.823	1
142	168271	15.823	1
142	168271	15.823	1
142	168271	15.823	1
142	168271	15.823	1
142	168271	15.823	1
142	168271	15.823	1
142	168271	15.823	1
142	168271	15.823	1
142	168271	15.823	1
142	168271	15.823	1
142	168271	15.823	1
142	168271	15.823	1
142	168271	15.823	1
142	168271	15.823	1
142	168271	15.823	1
142	168271	15.823	1
142	168271	15.823	1
142	168271	15.823	1
142	168271	15.823	1
142	168271	15.823	1
142	168271	15.823	1
142	168271	15.823	1
142	168271	15.823	1
142	168271	15.823	1
142	168271	15.823	1
142	168271	15.823	1
142	168271	15.823	1
142	168271	15.823	1
142	168271	15.823	1
142	168271	15.823	1
142	168271	15.823	1
142	168271	15.823	1
142	168271	15.823	1
142	168271	15.823	1
142	168271	15.823	1
142	168271	15.823	1
142	168271	15.823	1
142	168271	15.823	1
142	168271	15.823	1
142	168271	15.823	1
142	168271	15.823	1
142	168271	15.823	1
142	168271	15.823	1
142	168271	15.823	1
142	168271	15.823	1
142	168271	15.823	1
142	168271	15.823	1
142	168271	15.823	1
142	168271	15.823	1
142	168271	15.823	1
142	168271	15.823	1
142	168271	15.823	1
142	168271	15.823	1
142	168271	15.823	1
142	168271	15.823	1
142	168271	15.823	1
142	168271	15.823	1
142	168271	15.823	1
142	168271	15.823	1
142	168271	15.823	1
142	168271	15.823	1
142	168271	15.823	1
142	168271	15.823	1
142	168271	15.823	1
142	168271	15.823	1
142	168271	15.823	1
142	168271	15.823	1
142	168271	15.823	1
142	168271	15.823	1
142	168271	15.823	1
142	168271	15.823	1
142	168271	15.823	1
142	168271	15.823	1
142	168271	15.823	1
142	168271	15.823	1
142	168271	15.823	1
142	168271	15.823	1
142	168271	15.823	1
142	168271	15.823	1
142	168271	15.823	1
142	168271	15.823	1
142	168271	15.823	1
142	168271	15.823	1
142	168271	15.823	1
142	168271	15.823	1
142	168271	15.823	1
142	168271	15.823	1
142	168271	15.823	1
142	168271	15.823	1
142	168271	15.823	1
142	168271	15.823	1
142	168271	15.823	1
142	168271	15.823	1
142	168271	15.823	1
142	168271	15.823	1
142	168271	15.823	1
142	168271	15.823	1
142	168271	15.823	1
142	168271	15.823	1
142	168271	15.823	1
142	168271	15.823	1
142	168271	15.823	1
142	168271	15.823	1
142	168271	15.823	1
142	168271	15.823	1
142	168271	15.823	1
142	168271	15.823	1
142	168271	15.823	1
142	168271	15.823	1
142	168271	15.823	1
142	168271	15.823	1
142	168271	15.823	1
142	168271	15.823	1
142	168271	15.823	1
142	168271	15.823	1
142	168271	15.823	1
142	168271	15.823	1
142	168271	15.823	1
142	168271	15.823	1
142	168271	15.823	1
142	168271	15.823	1
142	168271	15.823	1
142	168271	15.823	1
142	168271	15.823	1
142	168271	15.823	1
142	168271	15.823	1
142	168271	15.823	1
142	168271	15.823	1
142	168271	15.823	1
142	168271	15.823	1
142	168271	15.823	1
142	168271	15.823	1
142	168271	15.823	1
142	168271	15.823	1
142	168271	15.823	1
142	168271	15.823	1
142	168271	15.823	1
142	168271	15.823	1
142	168271	15.823	1
142	168271	15.823	1
142	168271	15.823	1
142	168271	15.823	1
142	168271	15.823	1
142	168271	15.823	1
142	168271	15.823	1
142	168271	15.823	1
142	168271	15.823	1
142	168271	15.823	1
142	168271	15.823	1
142	168271	15.823	1
142	168271	15.823	1
142	168271	15.823	1
142	168271	15.823	1
142	168271	15.823	1
142	168271	15.823	1
142	168271	15.823	1
142	168271	15.823	1
142	168271	15.823	1
142	168271	15.823	1
142	168271	15.823	1
142	168271	15.823	1
142	168271	15.823	1
142	168271	15.823	1
142	168271	15.823	1
142	168271	15.823	1
142	168271	15.823	1
142	168271	15.823	1
142	168271	15.823	1
142	168271	15.823	1
142	168271	15.823	1
142	168271	15.823	1
142	168271	15.823	1
142	168271	15.823	1
142	168271	15.823	1
142	168271	15.823	1
142	168271	15.823	1
142	168271	15.823	1
142	168271	15.823	1
142	168271	15.823	1
142	168271	15.823	1
142	168271	15.823	1
142	168271	15.823	1
142	168271	15.823	1
142	168271	15.823	1
142	168271	15.823	1
142	168271	15.823	1
142	168271	15.823	1
142	168271	15.823	1
142	168271	15.823	1
142	168271	15.823	1
142	168271	15.823	1
142	168271	15.823	1
142	168271	15.823	1
142	168271	15.823	1
142	168271	15.823	1
142	168271	15.823	1
142	168271	15.823	1
142	168271	15.823	1
142	168271	15.823	1
142	168271	15.823	1
142	168271	15.823	1
142	168271	15.823	1
142	168271	15.823	1
142	168271	15.823	1
142	168271	15.823	1
142	168271	15.823	1
142	168271	15.823	1
142	168271	15.823	1
142	168271	15.823	1
142	168271	15.823	1
142	168271	15.823	1
142	168271	15.823	1
142	168271	15.823	1
142	168271	15.823	1
142	168271	15.823	1
142	168271	15.823	1
142	168271	15.823	1
142	168271	15.823	1
142	168271	15.823	1
142	168271	15.823	1
142	168271	15.823	1
142	168271	15.823	1
142	168271	15.823	1
142	168271	15.823	1
142	168271	15.823	1
142	168271	15.823	1
142	168271	15.823	1
142	168271	15.823	1
142	168271	15.823	1
142	168271	15.823	1
142	168271	15.823	1
142	168271	15.823	1
142	168271	15.823	1
142	168271	15.823	1
142	168271	15.823	1
142	168271	15.823	1
142	168271	15.823	1
142	168271	15.823	1
142	168271	15.823	1
142	168271	15.823	1
142	168271	15.823	1
142	168271	15.823	1
142	168271	15.823	1
142	168271	15.823	1
142	168271	15.823	1
142	168271	15.823	1
142	168271	15.823	1
142	168271	15.823	1
142	168271	15.823	1
142	168271	15.823	1
142	168271	15.823	1
142	168271	15.823	1
142	168271	15.823	1
142	168271	15.823	1
142	168271	15.823	1
142	168271	15.823	1
142	168271	15.823	1
142	168271	15.823	1
142	168271	15.823	1
142	168271	15.823	1
142	168271	15.823	1
142	168271	15.823	1
142	168271	15.823	1
142	168271	15.823	1
142	168271	15.823	1
142	168271	15.823	1
142	168271	15.823	1
142	168271	15.823	1
142	168271	15.823	1
142	168271	15.823	1
142	168271	15.823	1
142	168271	15.823	1
142	168271	15.823	1
142	168271	15.823	1
142	168271	15.823	1
142	168271	15.823	1
142	168271	15.823	1
142	168271	15.823	1
142	168271	15.823	1
142	168271	15.823	1
142	168271	15.823	1
142	168271	15.823	1
142	168271	15.823	1
142	168271	15.823	1
142	168271	15.823	1
142	168271	15.823	1
142	168271	15.823	1
142	168271	15.823	1
142	168271	15.823	1
142	168271	15.823	1
142	168271	15.823	1
142	168271	15.823	1
142	168271	15.823	1
142	168271	15.823	1
142	168271	15.823	1
142	168271	15.823	1
142	168271	15.823	1
142	168271	15.823	1
142	168271	15.823	1
142	168271	15.823	1
142	168271	15.823	1
142	168271	15.823	1
142	168271	15.823	1
142	168271	15.823	1
142	168271	15.823	1
142	168271	15.823	1
142	168271	15.823	1
142	168271	15.823	1
142	168271	15.823	1
142	168271	15.823	1
142	168271	15.823	1
142	168271	15.823	1
142	168271	15.823	1
142	168271	15.823	1
142	168271	15.823	1
142	168271	15.823	1
142	168271	15.823	1
142	168271	15.823	1
142	168271	15.823	1
142	168271	15.823	1
142	168271	15.823	1
142	168271	15.823	1
142	168271	15.823	1
142	168271	15.823	1
142	168271	15.823	1
142	168271	15.823	1
142	168271	15.823	1
142	168271	15.823	1
142	168271	15.823	1
142	168271	15.823	1
142	168271	15.823	1
142	168271	15.823	1
142	168271	15.823	1
142	168271	15.823	1
142	168271	15.823	1
142	168271	15.823	1
142	168271	15.823	1
142	168271	15.823	1
142	168271	15.823	1
142	168271	15.823	1
142	168271	15.823	1
142	168271	15.823	1
142	168271	15.823	1
142	168271	15.823	1
142	168271	15.823	1
142	168271	15.823	1
142	168271	15.823	1
142	168271	15.823	1
142	168271	15.823	1
142	168271	15.823	1
142	168271	15.823	1
142	168271	15.823	1
142	168271	15.823	1
142	168271	15.823	1
142	168271	15.823	1
142	168271	15.823	1
142	168271	15.823	1
142	168271	15.823	1
142	168271	15.823	1
142	168271	15.823	1
142	168271	15.823	1
142	168271	15.823	1
142	168271	15.823	1
142	168271	15.823	1
142	168271	15.823	1
142	168271	15.823	1
142	168271	15.823	1
142	168271	15.823	1
142	168271	15.823	1
142	168271	15.823	1
142	168271	15.823	1
142	168271	15.823	1
142	168271	15.823	1
142	168271	15.823	1
142	168271	15.823	1
142	168271	15.823	1
142	168271	15.823	1
142	168271	15.823	1
142	168271	15.823	1
142	168271	15.823	1
142	168271	15.823	1
142	168271	15.823	1
142	168271	15.823	1
142	168271	15.823	1
142	168271	15.823	1
142	168271	15.823	1
142	168271	15.823	1
142	168271	15.823	1
142	168271	15.823	1
142	168271	15.823	1
142	168271	15.823	1
142	168271	15.823	1
142	168271	15.823	1
142	168271	15.823	1
142	168271	15.823	1
142	168271	15.823	1
142	168271	15.823	1
142	168271	15.823	1
142	168271	15.823	1
142	168271	15.823	1
142	168271	15.823	1
142	168271	15.823	1
142	168271	15.823	1
142	168271	15.823	1
142	168271	15.823	1
142	168271	15.823	1
142	168271	15.823	1
142	168271	15.823	1
142	168271	15.823	1
142	168271	15.823	1
142	168271	15.823	1
142	168271	15.823	1
142	168271	15.823	1
142	168271	15.823	1
142	168271	15.823	1
142	168271	15.823	1
142	168271	15.823	1
142	168271	15.823	1
142	168271	15.823	1
142	168271	15.823	1
142	168271	15.823	1
142	168271	15.823	1
142	168271	15.823	1
142	168271	15.823	1
142	168271	15.823	1
142	168271	15.823	1
142	168271	15.823	1
142	168271	15.823	1
142	168271	15.823	1
142	168271	15.823	1
142	168271	15.823	1
142	168271	15.823	1
142	168271	15.823	1
142	168271	15.823	1
142	168271	15.823	1
142	168271	15.823	1
142	168271	15.823	1
142	168271	15.823	1
142	168271	15.823	1
142	168271	15.823	1
142	168271	15.823	1
142	168271	15.823	1
142	168271	15.823	1
142	168271	15.823	1
142	168271	15.823	1
142	168271	15.823	1
142	168271	15.823	1
142	168271	15.823	1
142	168271	15.823	1
142	168271	15.823	1
142	168271	15.823	1
142	168271	15.823	1
142	168271	15.823	1
142	168271	15.823	1
142	168271	15.823	1
142	168271	15.823	1
142	168271	15.823	0
142	168567	15.843	0
142	168869	15.863	0
142	169169	15.883	0
142	169466	15.903	0
142	169768	15.923	0
142	170068	15.943	0
142	170364	15.963	0
142	170666	15.983	0
142	170979	16.003	0
142	171275	16.023	0
142	171577	16.043	0
142	171879	16.063	0
142	172175	16.083	0
142	172478	16.103	0
142	172778	16.123	0
142	173074	16.143	0
142	173376	16.163	0
142	173676	16.183	0
142	173973	16.203	0
142	174275	16.223	0
142	174575	16.243	0
142	174871	16.263	0
142	175173	16.283	0
142	175474	16.303	0
142	175770	16.323	0
142	176072	16.343	0
142	176372	16.363	0
143	168272	15.823	39
143	168568	15.843	39
143	168870	15.863	39
143	169170	15.883	39
143	169467	15.903	39
143	169769	15.923	39
143	170069	15.943	39
143	170365	15.963	39
143	170667	15.983	39
143	170980	16.003	39
143	171276	16.023	39
143	171578	16.043	39
143	171880	16.063	39
143	172176	16.083	39
143	172479	16.103	39
143	172779	16.123	39
143	173075	16.143	39
143	173377	16.163	39
143	173677	16.183	39
143	173974	16.203	39
143	174276	16.223	39
143	174576	16.243	39
143	174872	16.263	39
143	175174	16.283	39
143	175475	16.303	39
143	175771	16.323	39
143	176073	16.343	39
143	176373	16.363	39
144	168272	15.823	38
144	168568	15.843	38
144	168870	15.863	38
144	169170	15.883	38
144	169467	15.903	38
144	169769	15.923	38
144	170069	15.943	38
144	170365	15.963	38
144	170667	15.983	38
144	170980	16.003	38
144	171276	16.023	38
144	171578	16.043	38
144	171880	16.063	38
144	172176	16.083	38
144	172479	16.103	38
144	172779	16.123	38
144	173075	16.143	38
144	173377	16.163	38
144	173677	16.183	38
144	173974	16.203	38
144	174276	16.223	38
144	174576	16.243	38
144	174872	16.263	38
144	175174	16.283	38
144	175475	16.303	38
144	175771	16.323	38
144	176073	16.343	38
144	176373	16.363	38
145	168275	15.823	18
145	168571	15.843	18
145	168873	15.863	18
145	169173	15.883	18
145	169470	15.903	18
145	169772	15.923	18
145	170072	15.943	18
145	170368	15.963	18
145	170670	15.983	18
145	170983	16.003	18
145	171279	16.023	18
145	171581	16.043	18
145	171883	16.063	18
145	172179	16.083	18
145	172482	16.103	18
145	172782	16.123	18
145	173078	16.143	18
145	173380	16.163	18
145	173680	16.183	18
145	173977	16.203	18
145	174279	16.223	18
145	174579	16.243	18
145	174875	16.263	18
145	175177	16.283	18
145	175478	16.303	18
145	175774	16.323	18
145	176076	16.343	18
145	176376	16.363	18
146	168276	15.823	0.014
146	168572	15.843	0.014
146	168874	15.863	0.014
146	169174	15.883	0.014
146	169471	15.903	0.014
146	169773	15.923	0.014
146	170073	15.943	0.014
146	170369	15.963	0.014
146	170671	15.983	0.014
146	170984	16.003	0.014
146	171280	16.023	0.014
146	171582	16.043	0.014
146	171884	16.063	0.014
146	172180	16.083	0.014
146	172483	16.103	0.014
146	172783	16.123	0.014
146	173079	16.143	0.014
146	173381	16.163	0.014
146	173681	16.183	0.014
146	173978	16.203	0.014
146	174280	16.223	0.014
146	174580	16.243	0.014
146	174876	16.263	0.014
146	175178	16.283	0.014
146	175479	16.303	0.014
146	175775	16.323	0.014
146	176077	16.343	0.014
146	176377	16.363	0.014
147	168276	15.823	1
147	168572	15.843	1
147	168874	15.863	1
147	169174	15.883	1
147	169471	15.903	1
147	169773	15.923	1
147	170073	15.943	1
147	170369	15.963	1
147	170671	15.983	1
147	170984	16.003	1
147	171280	16.023	1
147	171582	16.043	1
147	171884	16.063	1
147	172180	16.083	1
147	172483	16.103	1
147	172783	16.123	1
147	173079	16.143	1
147	173381	16.163	1
147	173681	16.183	1
147	173978	16.203	1
147	174280	16.223	1
147	174580	16.243	1
147	174876	16.263	1
147	175178	16.283	1
147	175479	16.303	1
147	175775	16.323	1
147	176077	16.343	1
147	176377	16.363	1

