version 3
run SinglePair-modeSwitching-TCP-0-20230228-09:48:03-219223
attr configname SinglePair-modeSwitching-TCP
attr datetime 20230228-09:48:03
attr datetimef 20230228-094803
attr experiment SinglePair-modeSwitching-TCP
attr inifile omnetpp.ini
attr iterationvars ""
attr iterationvarsd ""
attr iterationvarsf ""
attr measurement ""
attr network simu5g.simulations.NR.networks.SingleCell_Standalone_D2D
attr processid 219223
attr repetition 0
attr replication #0
attr resultdir results
attr runnumber 0
attr seedset 0
config image-path ../../../images:../../../../inet4.4/images:../../../../veins-veins-5.2/subprojects/veins_inet/images:../../../../veins-veins-5.2/images
config extends SinglePair-modeSwitching
config *.ueD2D*[0].numApps 1
config *.ueD2DTx[0].app[0].typename TcpSessionApp
config *.ueD2DTx[0].app[0].connectPort 1000
config *.ueD2DTx[0].app[0].localPort 1000
config *.ueD2DTx[0].app[0].sendBytes 1GiB
config *.ueD2DTx[0].app[0].active true
config *.ueD2DTx[0].app[0].tOpen uniform(0.010s,0.1s)
config *.ueD2DTx[0].app[0].tSend uniform(0.15s,0.5s)
config *.ueD2DTx[0].app[0].connectAddress "\"ueD2DRx[0]\""
config *.ueD2DTx[0].app[0].localAddress "\"ueD2DTx[0]\""
config *.ueD2DRx[0].app[0].typename TcpSinkApp
config *.ueD2DRx[0].app[0].localPort 1000
config **.app[*].tClose -1s
config network simu5g.simulations.NR.networks.SingleCell_Standalone_D2D
config sim-time-limit 50s
config warmup-period 0s
config **.vector-recording true
config **.cellularNic.channelModel[0].fading false
config **.cellularNic.channelModel[0].shadowing false
config *.gnb.mobility.initialX 300m
config *.gnb.mobility.initialY 300m
config *.numUeCell 0
config *.numUeD2DTx 1
config *.numUeD2DRx 1
config *.ue*[0].macCellId 0
config *.ue*[0].masterId 0
config *.ue*[0].nrMacCellId 1
config *.ue*[0].nrMasterId 1
config *.ue*[0].mobility.initFromDisplayString false
config *.ue*[0].mobility.typename LinearMobility
config *.ue*[0].mobility.speed 10mps
config *.ueD2DTx[0].mobility.initialX 290m
config *.ueD2DTx[0].mobility.initialY 400m
config *.ueD2DTx[0].mobility.constraintAreaMinX 200m
config *.ueD2DTx[0].mobility.constraintAreaMaxX 290m
config *.ueD2DTx[0].mobility.initialMovementHeading 180deg
config *.ueD2DRx[0].mobility.initialX 310m
config *.ueD2DRx[0].mobility.initialY 400m
config *.ueD2DRx[0].mobility.constraintAreaMinX 310m
config *.ueD2DRx[0].mobility.constraintAreaMaxX 400m
config *.ueD2DRx[0].mobility.initialMovementHeading 0deg
config *.ueD2D*[*].cellularNic.d2dInitialMode true
config **.usePreconfiguredTxParams false
config **.gnb.cellularNic.phy.enableD2DCqiReporting true
config **.amcMode "\"D2D\""
config *.gnb.cellularNic.d2dModeSelectionType "\"D2DModeSelectionBestCqi\""
config image-path ../../images
config sim-time-limit 20s
config warmup-period 0s
config repeat 3
config **.routingRecorder.enabled false
config output-scalar-file results/SinglePair-modeSwitching-TCP/0.sca
config output-vector-file results/SinglePair-modeSwitching-TCP/0.vec
config seed-set 0
config **.vector-recording false
config **.mobility.constraintAreaMaxX 1000m
config **.mobility.constraintAreaMaxY 1000m
config **.mobility.constraintAreaMinX 0m
config **.mobility.constraintAreaMinY 0m
config **.mobility.constraintAreaMinZ 0m
config **.mobility.constraintAreaMaxZ 0m
config **.mobility.initFromDisplayString false
config **.numBands 50
config **.ueTxPower 26
config **.eNodeBTxPower 40
config **.targetBler 0.01
config **.blerShift 5
config *.configurator.config "xmldoc(\"./demo.xml\")"

vector 0 SingleCell_Standalone_D2D.server.ppp[0].ppp transmissionState:vector ETV
attr interpolationmode sample-hold
attr recordingmode vector
attr source transmissionStateChanged
attr title "tx state"
vector 1 SingleCell_Standalone_D2D.server.udp passedUpPk:vector(count) ETV
attr interpolationmode none
attr recordingmode vector(count)
attr source packetSentToUpper
attr title "packets passed up, count"
vector 2 SingleCell_Standalone_D2D.server.udp droppedPkWrongPort:vector(count) ETV
attr interpolationmode none
attr recordingmode vector(count)
attr source packetDropReasonIsNoPortFound(packetDropped)
attr title "packets dropped (wrong port), count"
vector 3 SingleCell_Standalone_D2D.server.udp droppedPkBadChecksum:vector(count) ETV
attr interpolationmode none
attr recordingmode vector(count)
attr source packetDropReasonIsIncorrectlyReceived(packetDropped)
attr title "packets dropped (checksum error), count"
vector 4 SingleCell_Standalone_D2D.router.ppp[0].ppp transmissionState:vector ETV
attr interpolationmode sample-hold
attr recordingmode vector
attr source transmissionStateChanged
attr title "tx state"
vector 5 SingleCell_Standalone_D2D.router.ppp[1].ppp transmissionState:vector ETV
attr interpolationmode sample-hold
attr recordingmode vector
attr source transmissionStateChanged
attr title "tx state"
vector 6 SingleCell_Standalone_D2D.upf.ppp[0].ppp transmissionState:vector ETV
attr interpolationmode sample-hold
attr recordingmode vector
attr source transmissionStateChanged
attr title "tx state"
vector 7 SingleCell_Standalone_D2D.upf.pppIf.ppp transmissionState:vector ETV
attr interpolationmode sample-hold
attr recordingmode vector
attr source transmissionStateChanged
attr title "tx state"
vector 8 SingleCell_Standalone_D2D.upf.udp passedUpPk:vector(count) ETV
attr interpolationmode none
attr recordingmode vector(count)
attr source packetSentToUpper
attr title "packets passed up, count"
vector 9 SingleCell_Standalone_D2D.upf.udp droppedPkWrongPort:vector(count) ETV
attr interpolationmode none
attr recordingmode vector(count)
attr source packetDropReasonIsNoPortFound(packetDropped)
attr title "packets dropped (wrong port), count"
vector 10 SingleCell_Standalone_D2D.upf.udp droppedPkBadChecksum:vector(count) ETV
attr interpolationmode none
attr recordingmode vector(count)
attr source packetDropReasonIsIncorrectlyReceived(packetDropped)
attr title "packets dropped (checksum error), count"
vector 11 SingleCell_Standalone_D2D.iUpf.ppp[0].ppp transmissionState:vector ETV
attr interpolationmode sample-hold
attr recordingmode vector
attr source transmissionStateChanged
attr title "tx state"
vector 12 SingleCell_Standalone_D2D.iUpf.ppp[1].ppp transmissionState:vector ETV
attr interpolationmode sample-hold
attr recordingmode vector
attr source transmissionStateChanged
attr title "tx state"
vector 13 SingleCell_Standalone_D2D.iUpf.pppIf.ppp transmissionState:vector ETV
attr interpolationmode sample-hold
attr recordingmode vector
attr source transmissionStateChanged
attr title "tx state"
vector 14 SingleCell_Standalone_D2D.iUpf.udp passedUpPk:vector(count) ETV
attr interpolationmode none
attr recordingmode vector(count)
attr source packetSentToUpper
attr title "packets passed up, count"
vector 15 SingleCell_Standalone_D2D.iUpf.udp droppedPkWrongPort:vector(count) ETV
attr interpolationmode none
attr recordingmode vector(count)
attr source packetDropReasonIsNoPortFound(packetDropped)
attr title "packets dropped (wrong port), count"
vector 16 SingleCell_Standalone_D2D.iUpf.udp droppedPkBadChecksum:vector(count) ETV
attr interpolationmode none
attr recordingmode vector(count)
attr source packetDropReasonIsIncorrectlyReceived(packetDropped)
attr title "packets dropped (checksum error), count"
vector 17 SingleCell_Standalone_D2D.gnb.pppIf.ppp transmissionState:vector ETV
attr interpolationmode sample-hold
attr recordingmode vector
attr source transmissionStateChanged
attr title "tx state"
vector 18 SingleCell_Standalone_D2D.gnb.pppMEHostIf.ppp transmissionState:vector ETV
attr interpolationmode sample-hold
attr recordingmode vector
attr source transmissionStateChanged
attr title "tx state"
vector 19 SingleCell_Standalone_D2D.gnb.udp passedUpPk:vector(count) ETV
attr interpolationmode none
attr recordingmode vector(count)
attr source packetSentToUpper
attr title "packets passed up, count"
vector 20 SingleCell_Standalone_D2D.gnb.udp droppedPkWrongPort:vector(count) ETV
attr interpolationmode none
attr recordingmode vector(count)
attr source packetDropReasonIsNoPortFound(packetDropped)
attr title "packets dropped (wrong port), count"
vector 21 SingleCell_Standalone_D2D.gnb.udp droppedPkBadChecksum:vector(count) ETV
attr interpolationmode none
attr recordingmode vector(count)
attr source packetDropReasonIsIncorrectlyReceived(packetDropped)
attr title "packets dropped (checksum error), count"
vector 22 SingleCell_Standalone_D2D.ueD2DTx[0].udp passedUpPk:vector(count) ETV
attr interpolationmode none
attr recordingmode vector(count)
attr source packetSentToUpper
attr title "packets passed up, count"
vector 23 SingleCell_Standalone_D2D.ueD2DTx[0].udp droppedPkWrongPort:vector(count) ETV
attr interpolationmode none
attr recordingmode vector(count)
attr source packetDropReasonIsNoPortFound(packetDropped)
attr title "packets dropped (wrong port), count"
vector 24 SingleCell_Standalone_D2D.ueD2DTx[0].udp droppedPkBadChecksum:vector(count) ETV
attr interpolationmode none
attr recordingmode vector(count)
attr source packetDropReasonIsIncorrectlyReceived(packetDropped)
attr title "packets dropped (checksum error), count"
vector 25 SingleCell_Standalone_D2D.ueD2DRx[0].udp passedUpPk:vector(count) ETV
attr interpolationmode none
attr recordingmode vector(count)
attr source packetSentToUpper
attr title "packets passed up, count"
vector 26 SingleCell_Standalone_D2D.ueD2DRx[0].udp droppedPkWrongPort:vector(count) ETV
attr interpolationmode none
attr recordingmode vector(count)
attr source packetDropReasonIsNoPortFound(packetDropped)
attr title "packets dropped (wrong port), count"
vector 27 SingleCell_Standalone_D2D.ueD2DRx[0].udp droppedPkBadChecksum:vector(count) ETV
attr interpolationmode none
attr recordingmode vector(count)
attr source packetDropReasonIsIncorrectlyReceived(packetDropped)
attr title "packets dropped (checksum error), count"
vector 28 SingleCell_Standalone_D2D.ueD2DTx[0].cellularNic.phy servingCell:vector ETV
attr recordingmode vector
attr source servingCell
attr title "ID of the serving eNodeB for the UE"
attr unit ""
vector 29 SingleCell_Standalone_D2D.ueD2DTx[0].cellularNic.nrPhy servingCell:vector ETV
attr recordingmode vector
attr source servingCell
attr title "ID of the serving eNodeB for the UE"
attr unit ""
vector 30 SingleCell_Standalone_D2D.ueD2DRx[0].cellularNic.phy servingCell:vector ETV
attr recordingmode vector
attr source servingCell
attr title "ID of the serving eNodeB for the UE"
attr unit ""
vector 31 SingleCell_Standalone_D2D.ueD2DRx[0].cellularNic.nrPhy servingCell:vector ETV
attr recordingmode vector
attr source servingCell
attr title "ID of the serving eNodeB for the UE"
attr unit ""
vector 32 SingleCell_Standalone_D2D.gnb.cellularNic.mac avgServedBlocksUl:vector ETV
attr recordingmode vector
attr source avgServedBlocksUl
attr title "Avg Served Blocks Ul"
attr unit blocks
vector 33 SingleCell_Standalone_D2D.gnb.cellularNic.mac avgServedBlocksDl:vector ETV
attr recordingmode vector
attr source avgServedBlocksDl
attr title "Avg Served Blocks Dl"
attr unit blocks
vector 34 SingleCell_Standalone_D2D.ueD2DTx[0].cellularNic.nrChannelModel[0] measuredSinrUl:vector ETV
attr recordingmode vector
attr source measuredSinrUl
attr title "SINR measured at feedback computation, UL"
attr unit dB
vector 35 SingleCell_Standalone_D2D.ueD2DTx[0].cellularNic.nrChannelModel[0] measuredSinrDl:vector ETV
attr recordingmode vector
attr source measuredSinrDl
attr title "SINR measured at feedback computation, DL"
attr unit dB
vector 36 SingleCell_Standalone_D2D.gnb.cellularNic.mac receivedPacketFromLowerLayer:vector(packetBytes) ETV
attr interpolationmode none
attr recordingmode vector(packetBytes)
attr source receivedPacketFromLowerLayer
vector 37 SingleCell_Standalone_D2D.ueD2DRx[0].cellularNic.nrChannelModel[0] measuredSinrUl:vector ETV
attr recordingmode vector
attr source measuredSinrUl
attr title "SINR measured at feedback computation, UL"
attr unit dB
vector 38 SingleCell_Standalone_D2D.ueD2DRx[0].cellularNic.nrChannelModel[0] measuredSinrDl:vector ETV
attr recordingmode vector
attr source measuredSinrDl
attr title "SINR measured at feedback computation, DL"
attr unit dB
vector 39 SingleCell_Standalone_D2D.ueD2DTx[0].tcp.conn-20 tcpRcvQueueBytes:vector ETV
attr interpolationmode sample-hold
attr recordingmode vector
vector 40 SingleCell_Standalone_D2D.ueD2DTx[0].tcp.conn-20 rcvAdv:vector ETV
attr interpolationmode sample-hold
attr recordingmode vector
vector 41 SingleCell_Standalone_D2D.ueD2DTx[0].tcp.conn-20 rcvWnd:vector ETV
attr interpolationmode sample-hold
attr recordingmode vector
vector 42 SingleCell_Standalone_D2D.ueD2DTx[0].tcp.conn-20 sndAck:vector ETV
attr interpolationmode sample-hold
attr recordingmode vector
vector 43 SingleCell_Standalone_D2D.ueD2DTx[0].cellularNic.pdcpRrc receivedPacketFromUpperLayer:vector(packetBytes) ETV
attr interpolationmode none
attr recordingmode vector(packetBytes)
attr source receivedPacketFromUpperLayer
vector 44 SingleCell_Standalone_D2D.ueD2DTx[0].cellularNic.pdcpRrc sentPacketToLowerLayer:vector(packetBytes) ETV
attr interpolationmode none
attr recordingmode vector(packetBytes)
attr source sentPacketToLowerLayer
vector 45 SingleCell_Standalone_D2D.ueD2DTx[0].cellularNic.nrRlc.um receivedPacketFromUpperLayer:vector(packetBytes) ETV
attr interpolationmode none
attr recordingmode vector(packetBytes)
attr source receivedPacketFromUpperLayer
vector 46 SingleCell_Standalone_D2D.ueD2DTx[0].cellularNic.nrMac receivedPacketFromUpperLayer:vector(packetBytes) ETV
attr interpolationmode none
attr recordingmode vector(packetBytes)
attr source receivedPacketFromUpperLayer
vector 47 SingleCell_Standalone_D2D.ueD2DTx[0].cellularNic.nrMac sentPacketToLowerLayer:vector(packetBytes) ETV
attr interpolationmode none
attr recordingmode vector(packetBytes)
attr source sentPacketToLowerLayer
vector 48 SingleCell_Standalone_D2D.gnb.cellularNic.mac sentPacketToLowerLayer:vector(packetBytes) ETV
attr interpolationmode none
attr recordingmode vector(packetBytes)
attr source sentPacketToLowerLayer
vector 49 SingleCell_Standalone_D2D.ueD2DTx[0].cellularNic.nrMac receivedPacketFromLowerLayer:vector(packetBytes) ETV
attr interpolationmode none
attr recordingmode vector(packetBytes)
attr source receivedPacketFromLowerLayer
vector 50 SingleCell_Standalone_D2D.ueD2DTx[0].cellularNic.nrPhy averageCqiUl:vector ETV
attr recordingmode vector
attr source averageCqiUl
attr title "Average Cqi reported in UL"
attr unit cqi
vector 51 SingleCell_Standalone_D2D.ueD2DTx[0].cellularNic.nrChannelModel[0] rcvdSinrUl:vector ETV
attr recordingmode vector
attr source rcvdSinrUl
attr title "SINR measured at packet reception, UL"
attr unit dB
vector 52 SingleCell_Standalone_D2D.ueD2DTx[0].cellularNic.nrMac macDelayUl:vector ETV
attr recordingmode vector
attr source macDelayUl
attr title "Delay at the MAC layer UL"
attr unit s
vector 53 SingleCell_Standalone_D2D.ueD2DTx[0].cellularNic.nrMac harqErrorRate_1st_Ul:vector ETV
attr recordingmode vector
attr source harqErrorRate_1st_Ul
attr title "Harq Error Rate Ul (1st tx)"
attr unit ""
vector 54 SingleCell_Standalone_D2D.ueD2DTx[0].cellularNic.nrMac harqErrorRateUl:vector ETV
attr recordingmode vector
attr source harqErrorRateUl
attr title "Harq Error Rate Ul"
attr unit ""
vector 55 SingleCell_Standalone_D2D.ueD2DTx[0].cellularNic.nrMac harqTxAttemptsUl:vector ETV
attr recordingmode vector
attr source harqTxAttemptsUl
attr title "Harq Tx Attempts Ul"
attr unit ""
vector 56 SingleCell_Standalone_D2D.ueD2DTx[0].cellularNic.nrMac sentPacketToUpperLayer:vector(packetBytes) ETV
attr interpolationmode none
attr recordingmode vector(packetBytes)
attr source sentPacketToUpperLayer
vector 57 SingleCell_Standalone_D2D.ueD2DTx[0].cellularNic.nrRlc.um rlcPacketLossUl:vector ETV
attr recordingmode vector
attr source rlcPacketLossUl
attr title "rlc Packet Loss"
attr unit ""
vector 58 SingleCell_Standalone_D2D.ueD2DTx[0].cellularNic.nrRlc.um sentPacketToLowerLayer:vector(packetBytes) ETV
attr interpolationmode none
attr recordingmode vector(packetBytes)
attr source sentPacketToLowerLayer
vector 59 SingleCell_Standalone_D2D.ueD2DTx[0].cellularNic.nrPhy averageCqiD2D:vector ETV
attr recordingmode vector
attr source averageCqiD2D
attr title "Average Cqi reported in D2D"
attr unit cqi
vector 60 SingleCell_Standalone_D2D.ueD2DRx[0].cellularNic.nrMac receivedPacketFromLowerLayer:vector(packetBytes) ETV
attr interpolationmode none
attr recordingmode vector(packetBytes)
attr source receivedPacketFromLowerLayer
vector 61 SingleCell_Standalone_D2D.ueD2DRx[0].cellularNic.nrMac sentPacketToLowerLayer:vector(packetBytes) ETV
attr interpolationmode none
attr recordingmode vector(packetBytes)
attr source sentPacketToLowerLayer
vector 62 SingleCell_Standalone_D2D.ueD2DRx[0].cellularNic.nrMac macDelayD2D:vector ETV
attr recordingmode vector
attr source macDelayD2D
attr title "Delay at the MAC layer D2D"
attr unit s
vector 63 SingleCell_Standalone_D2D.ueD2DRx[0].cellularNic.nrMac sentPacketToUpperLayer:vector(packetBytes) ETV
attr interpolationmode none
attr recordingmode vector(packetBytes)
attr source sentPacketToUpperLayer
vector 64 SingleCell_Standalone_D2D.ueD2DRx[0].cellularNic.nrRlc.um receivedPacketFromLowerLayer:vector(packetBytes) ETV
attr interpolationmode none
attr recordingmode vector(packetBytes)
attr source receivedPacketFromLowerLayer
vector 65 SingleCell_Standalone_D2D.ueD2DRx[0].cellularNic.nrRlc.um rlcPduThroughputD2D:vector ETV
attr recordingmode vector
attr source rlcPduThroughputD2D
attr title "Throughput at the rlc layer D2D"
attr unit Bps
vector 66 SingleCell_Standalone_D2D.ueD2DRx[0].cellularNic.nrRlc.um rlcPduDelayD2D:vector ETV
attr recordingmode vector
attr source rlcPduDelayD2D
attr title "Delay at the rlc layer D2D"
attr unit s
vector 67 SingleCell_Standalone_D2D.ueD2DRx[0].cellularNic.nrRlc.um rlcThroughputD2D:vector ETV
attr recordingmode vector
attr source rlcThroughputD2D
attr title "Throughput at the rlc layer D2D"
attr unit Bps
vector 68 SingleCell_Standalone_D2D.ueD2DRx[0].cellularNic.nrRlc.um rlcPacketLossD2D:vector ETV
attr recordingmode vector
attr source rlcPacketLossD2D
attr title "rlc Packet Loss"
attr unit ""
vector 69 SingleCell_Standalone_D2D.ueD2DRx[0].cellularNic.nrRlc.um rlcPacketLossTotal:vector ETV
attr recordingmode vector
attr source rlcPacketLossTotal
attr title "rlc Packet Loss"
attr unit ""
vector 70 SingleCell_Standalone_D2D.ueD2DRx[0].cellularNic.nrRlc.um rlcDelayD2D:vector ETV
attr recordingmode vector
attr source rlcDelayD2D
attr title "Delay at the rlc layer D2D"
attr unit s
vector 71 SingleCell_Standalone_D2D.ueD2DRx[0].cellularNic.nrRlc.um sentPacketToUpperLayer:vector(packetBytes) ETV
attr interpolationmode none
attr recordingmode vector(packetBytes)
attr source sentPacketToUpperLayer
vector 72 SingleCell_Standalone_D2D.ueD2DRx[0].cellularNic.nrRlc.um rlcPduPacketLossD2D:vector ETV
attr recordingmode vector
attr source rlcPduPacketLossD2D
attr title "rlc Packet Loss"
attr unit ""
vector 73 SingleCell_Standalone_D2D.ueD2DRx[0].cellularNic.pdcpRrc receivedPacketFromLowerLayer:vector(packetBytes) ETV
attr interpolationmode none
attr recordingmode vector(packetBytes)
attr source receivedPacketFromLowerLayer
vector 74 SingleCell_Standalone_D2D.ueD2DRx[0].cellularNic.pdcpRrc sentPacketToUpperLayer:vector(packetBytes) ETV
attr interpolationmode none
attr recordingmode vector(packetBytes)
attr source sentPacketToUpperLayer
vector 75 SingleCell_Standalone_D2D.ueD2DRx[0].tcp.conn-6 rcvSeq:vector ETV
attr interpolationmode sample-hold
attr recordingmode vector
vector 76 SingleCell_Standalone_D2D.ueD2DRx[0].tcp.conn-6 rcvAck:vector ETV
attr interpolationmode sample-hold
attr recordingmode vector
vector 77 SingleCell_Standalone_D2D.ueD2DRx[0].tcp.conn-6 tcpRcvPayloadBytes:vector ETV
attr interpolationmode sample-hold
attr recordingmode vector
vector 78 SingleCell_Standalone_D2D.ueD2DRx[0].tcp.conn-21 rcvAdv:vector ETV
attr interpolationmode sample-hold
attr recordingmode vector
vector 79 SingleCell_Standalone_D2D.ueD2DRx[0].tcp.conn-21 sndWnd:vector ETV
attr interpolationmode sample-hold
attr recordingmode vector
vector 80 SingleCell_Standalone_D2D.ueD2DRx[0].tcp.conn-21 tcpRcvQueueBytes:vector ETV
attr interpolationmode sample-hold
attr recordingmode vector
vector 81 SingleCell_Standalone_D2D.ueD2DRx[0].tcp.conn-21 rcvWnd:vector ETV
attr interpolationmode sample-hold
attr recordingmode vector
vector 82 SingleCell_Standalone_D2D.ueD2DRx[0].tcp.conn-21 sndAck:vector ETV
attr interpolationmode sample-hold
attr recordingmode vector
vector 83 SingleCell_Standalone_D2D.ueD2DRx[0].cellularNic.pdcpRrc receivedPacketFromUpperLayer:vector(packetBytes) ETV
attr interpolationmode none
attr recordingmode vector(packetBytes)
attr source receivedPacketFromUpperLayer
vector 84 SingleCell_Standalone_D2D.ueD2DRx[0].cellularNic.pdcpRrc sentPacketToLowerLayer:vector(packetBytes) ETV
attr interpolationmode none
attr recordingmode vector(packetBytes)
attr source sentPacketToLowerLayer
vector 85 SingleCell_Standalone_D2D.ueD2DRx[0].cellularNic.nrRlc.um receivedPacketFromUpperLayer:vector(packetBytes) ETV
attr interpolationmode none
attr recordingmode vector(packetBytes)
attr source receivedPacketFromUpperLayer
vector 86 SingleCell_Standalone_D2D.ueD2DRx[0].cellularNic.nrMac receivedPacketFromUpperLayer:vector(packetBytes) ETV
attr interpolationmode none
attr recordingmode vector(packetBytes)
attr source receivedPacketFromUpperLayer
vector 87 SingleCell_Standalone_D2D.ueD2DRx[0].cellularNic.nrMac harqErrorRate_1st_D2D:vector ETV
attr recordingmode vector
attr source harqErrorRate_1st_D2D
attr title "Harq Error Rate D2D (1st Tx)"
attr unit ""
vector 88 SingleCell_Standalone_D2D.ueD2DRx[0].cellularNic.nrMac harqErrorRateD2D:vector ETV
attr recordingmode vector
attr source harqErrorRateD2D
attr title "Harq Error Rate D2D"
attr unit ""
vector 89 SingleCell_Standalone_D2D.ueD2DRx[0].cellularNic.nrPhy averageCqiUl:vector ETV
attr recordingmode vector
attr source averageCqiUl
attr title "Average Cqi reported in UL"
attr unit cqi
vector 90 SingleCell_Standalone_D2D.ueD2DRx[0].cellularNic.nrChannelModel[0] rcvdSinrUl:vector ETV
attr recordingmode vector
attr source rcvdSinrUl
attr title "SINR measured at packet reception, UL"
attr unit dB
vector 91 SingleCell_Standalone_D2D.ueD2DRx[0].cellularNic.nrMac macDelayUl:vector ETV
attr recordingmode vector
attr source macDelayUl
attr title "Delay at the MAC layer UL"
attr unit s
vector 92 SingleCell_Standalone_D2D.ueD2DRx[0].cellularNic.nrMac harqErrorRate_1st_Ul:vector ETV
attr recordingmode vector
attr source harqErrorRate_1st_Ul
attr title "Harq Error Rate Ul (1st tx)"
attr unit ""
vector 93 SingleCell_Standalone_D2D.ueD2DRx[0].cellularNic.nrMac harqErrorRateUl:vector ETV
attr recordingmode vector
attr source harqErrorRateUl
attr title "Harq Error Rate Ul"
attr unit ""
vector 94 SingleCell_Standalone_D2D.ueD2DRx[0].cellularNic.nrMac harqTxAttemptsUl:vector ETV
attr recordingmode vector
attr source harqTxAttemptsUl
attr title "Harq Tx Attempts Ul"
attr unit ""
vector 95 SingleCell_Standalone_D2D.ueD2DRx[0].cellularNic.nrRlc.um rlcPacketLossUl:vector ETV
attr recordingmode vector
attr source rlcPacketLossUl
attr title "rlc Packet Loss"
attr unit ""
vector 96 SingleCell_Standalone_D2D.ueD2DRx[0].cellularNic.nrRlc.um sentPacketToLowerLayer:vector(packetBytes) ETV
attr interpolationmode none
attr recordingmode vector(packetBytes)
attr source sentPacketToLowerLayer
vector 97 SingleCell_Standalone_D2D.ueD2DRx[0].cellularNic.nrPhy averageCqiD2D:vector ETV
attr recordingmode vector
attr source averageCqiD2D
attr title "Average Cqi reported in D2D"
attr unit cqi
vector 98 SingleCell_Standalone_D2D.ueD2DTx[0].cellularNic.nrMac macDelayD2D:vector ETV
attr recordingmode vector
attr source macDelayD2D
attr title "Delay at the MAC layer D2D"
attr unit s
vector 99 SingleCell_Standalone_D2D.ueD2DTx[0].cellularNic.nrRlc.um receivedPacketFromLowerLayer:vector(packetBytes) ETV
attr interpolationmode none
attr recordingmode vector(packetBytes)
attr source receivedPacketFromLowerLayer
vector 100 SingleCell_Standalone_D2D.ueD2DTx[0].cellularNic.nrRlc.um rlcPduThroughputD2D:vector ETV
attr recordingmode vector
attr source rlcPduThroughputD2D
attr title "Throughput at the rlc layer D2D"
attr unit Bps
vector 101 SingleCell_Standalone_D2D.ueD2DTx[0].cellularNic.nrRlc.um rlcPduDelayD2D:vector ETV
attr recordingmode vector
attr source rlcPduDelayD2D
attr title "Delay at the rlc layer D2D"
attr unit s
vector 102 SingleCell_Standalone_D2D.ueD2DTx[0].cellularNic.nrRlc.um rlcThroughputD2D:vector ETV
attr recordingmode vector
attr source rlcThroughputD2D
attr title "Throughput at the rlc layer D2D"
attr unit Bps
vector 103 SingleCell_Standalone_D2D.ueD2DTx[0].cellularNic.nrRlc.um rlcPacketLossD2D:vector ETV
attr recordingmode vector
attr source rlcPacketLossD2D
attr title "rlc Packet Loss"
attr unit ""
vector 104 SingleCell_Standalone_D2D.ueD2DTx[0].cellularNic.nrRlc.um rlcPacketLossTotal:vector ETV
attr recordingmode vector
attr source rlcPacketLossTotal
attr title "rlc Packet Loss"
attr unit ""
vector 105 SingleCell_Standalone_D2D.ueD2DTx[0].cellularNic.nrRlc.um rlcDelayD2D:vector ETV
attr recordingmode vector
attr source rlcDelayD2D
attr title "Delay at the rlc layer D2D"
attr unit s
vector 106 SingleCell_Standalone_D2D.ueD2DTx[0].cellularNic.nrRlc.um sentPacketToUpperLayer:vector(packetBytes) ETV
attr interpolationmode none
attr recordingmode vector(packetBytes)
attr source sentPacketToUpperLayer
vector 107 SingleCell_Standalone_D2D.ueD2DTx[0].cellularNic.nrRlc.um rlcPduPacketLossD2D:vector ETV
attr recordingmode vector
attr source rlcPduPacketLossD2D
attr title "rlc Packet Loss"
attr unit ""
vector 108 SingleCell_Standalone_D2D.ueD2DTx[0].cellularNic.pdcpRrc receivedPacketFromLowerLayer:vector(packetBytes) ETV
attr interpolationmode none
attr recordingmode vector(packetBytes)
attr source receivedPacketFromLowerLayer
vector 109 SingleCell_Standalone_D2D.ueD2DTx[0].cellularNic.pdcpRrc sentPacketToUpperLayer:vector(packetBytes) ETV
attr interpolationmode none
attr recordingmode vector(packetBytes)
attr source sentPacketToUpperLayer
vector 110 SingleCell_Standalone_D2D.ueD2DTx[0].tcp.conn-20 rcvSeq:vector ETV
attr interpolationmode sample-hold
attr recordingmode vector
vector 111 SingleCell_Standalone_D2D.ueD2DTx[0].tcp.conn-20 rcvAck:vector ETV
attr interpolationmode sample-hold
attr recordingmode vector
vector 112 SingleCell_Standalone_D2D.ueD2DTx[0].tcp.conn-20 tcpRcvPayloadBytes:vector ETV
attr interpolationmode sample-hold
attr recordingmode vector
vector 113 SingleCell_Standalone_D2D.ueD2DTx[0].tcp.conn-20 sndWnd:vector ETV
attr interpolationmode sample-hold
attr recordingmode vector
vector 114 SingleCell_Standalone_D2D.ueD2DTx[0].cellularNic.nrMac harqErrorRate_1st_D2D:vector ETV
attr recordingmode vector
attr source harqErrorRate_1st_D2D
attr title "Harq Error Rate D2D (1st Tx)"
attr unit ""
vector 115 SingleCell_Standalone_D2D.ueD2DTx[0].cellularNic.nrMac harqErrorRateD2D:vector ETV
attr recordingmode vector
attr source harqErrorRateD2D
attr title "Harq Error Rate D2D"
attr unit ""
vector 116 SingleCell_Standalone_D2D.ueD2DRx[0].tcp.conn-21 rcvSeq:vector ETV
attr interpolationmode sample-hold
attr recordingmode vector
vector 117 SingleCell_Standalone_D2D.ueD2DRx[0].tcp.conn-21 rcvAck:vector ETV
attr interpolationmode sample-hold
attr recordingmode vector
vector 118 SingleCell_Standalone_D2D.ueD2DRx[0].tcp.conn-21 tcpRcvPayloadBytes:vector ETV
attr interpolationmode sample-hold
attr recordingmode vector
vector 119 SingleCell_Standalone_D2D.ueD2DRx[0].tcp.conn-21 unacked:vector ETV
attr interpolationmode sample-hold
attr recordingmode vector
vector 120 SingleCell_Standalone_D2D.ueD2DTx[0].app[0] packetSent:vector(packetBytes) ETV
attr interpolationmode none
attr recordingmode vector(packetBytes)
attr source packetSent
attr title "packets sent, packetBytes"
vector 121 SingleCell_Standalone_D2D.ueD2DTx[0].tcp.conn-20 sndNxt:vector ETV
attr interpolationmode sample-hold
attr recordingmode vector
vector 122 SingleCell_Standalone_D2D.ueD2DTx[0].tcp.conn-20 unacked:vector ETV
attr interpolationmode sample-hold
attr recordingmode vector
vector 123 SingleCell_Standalone_D2D.ueD2DRx[0].tcp.conn-21 dupAcks:vector ETV
attr interpolationmode sample-hold
attr recordingmode vector
vector 124 SingleCell_Standalone_D2D.ueD2DRx[0].app[0].thread_21 packetReceived:vector(packetBytes) ETV
attr interpolationmode none
attr recordingmode vector(packetBytes)
attr source packetReceived
attr title "packets received, packetBytes"
vector 125 SingleCell_Standalone_D2D.ueD2DRx[0].app[0].thread_21 endToEndDelay:vector ETV
attr interpolationmode none
attr recordingmode vector
attr source dataAge(packetReceived)
attr title "end-to-end delay"
attr unit s
vector 126 SingleCell_Standalone_D2D.ueD2DRx[0].app[0] packetReceived:vector(packetBytes) ETV
attr checkSignals false
attr interpolationmode none
attr recordingmode vector(packetBytes)
attr source packetReceived
attr title "packets received, packetBytes"
vector 127 SingleCell_Standalone_D2D.ueD2DRx[0].app[0] endToEndDelay:vector ETV
attr checkSignals false
attr interpolationmode none
attr recordingmode vector
attr source dataAge(packetReceived)
attr title "end-to-end delay"
attr unit s
vector 128 SingleCell_Standalone_D2D.ueD2DTx[0].tcp.conn-20 rtt:vector ETV
attr interpolationmode sample-hold
attr recordingmode vector
vector 129 SingleCell_Standalone_D2D.ueD2DTx[0].tcp.conn-20 srtt:vector ETV
attr interpolationmode sample-hold
attr recordingmode vector
vector 130 SingleCell_Standalone_D2D.ueD2DTx[0].tcp.conn-20 rttvar:vector ETV
attr interpolationmode sample-hold
attr recordingmode vector
vector 131 SingleCell_Standalone_D2D.ueD2DTx[0].tcp.conn-20 rto:vector ETV
attr interpolationmode sample-hold
attr recordingmode vector
vector 132 SingleCell_Standalone_D2D.ueD2DTx[0].tcp.conn-20 cwnd:vector ETV
attr interpolationmode sample-hold
attr recordingmode vector
vector 133 SingleCell_Standalone_D2D.ueD2DTx[0].tcp.conn-20 ssthresh:vector ETV
attr interpolationmode sample-hold
attr recordingmode vector
vector 134 SingleCell_Standalone_D2D.ueD2DTx[0].tcp.conn-20 dupAcks:vector ETV
attr interpolationmode sample-hold
attr recordingmode vector
vector 135 SingleCell_Standalone_D2D.ueD2DRx[0].cellularNic.nrMac harqErrorRate_2nd_D2D:vector ETV
attr recordingmode vector
attr source harqErrorRate_2nd_D2D
attr title "Harq Error Rate D2D (2nd Tx)"
attr unit ""
vector 136 SingleCell_Standalone_D2D.ueD2DTx[0].cellularNic.nrMac harqErrorRate_2nd_D2D:vector ETV
attr recordingmode vector
attr source harqErrorRate_2nd_D2D
attr title "Harq Error Rate D2D (2nd Tx)"
attr unit ""
0	0	0	0
1	0	0	0
2	0	0	0
3	0	0	0
4	0	0	0
5	0	0	0
6	0	0	0
7	0	0	0
8	0	0	0
9	0	0	0
10	0	0	0
11	0	0	0
12	0	0	0
13	0	0	0
14	0	0	0
15	0	0	0
16	0	0	0
17	0	0	0
18	0	0	0
19	0	0	0
20	0	0	0
21	0	0	0
22	0	0	0
23	0	0	0
24	0	0	0
25	0	0	0
26	0	0	0
27	0	0	0
28	0	0	0
29	0	0	1
30	0	0	0
31	0	0	1
32	11	0.001	0
32	17	0.002	0
32	27	0.003	0
32	33	0.004	0
32	39	0.005	0
32	47	0.006	0
32	55	0.007	0
32	61	0.008	0
32	71	0.009	0
32	77	0.01	0
32	83	0.011	0
32	91	0.012	0
32	99	0.013	0
32	105	0.014	0
32	115	0.015	0
32	121	0.016	0
32	127	0.017	0
32	135	0.018	0
32	143	0.019	0
32	149	0.02	0
32	159	0.021	0
32	165	0.022	0
32	171	0.023	0
32	179	0.024	0
32	187	0.025	0
32	193	0.026	0
32	203	0.027	0
32	209	0.028	0
32	215	0.029	0
32	223	0.03	0
32	231	0.031	0
32	237	0.032	0
32	247	0.033	0
32	253	0.034	0
32	259	0.035	0
32	267	0.036	0
32	275	0.037	0
32	281	0.038	0
32	291	0.039	0
32	297	0.04	0
32	303	0.041	0
32	311	0.042	0
32	319	0.043	0
32	325	0.044	0
32	335	0.045	0
32	341	0.046	0
32	347	0.047	0
32	355	0.048	0
32	363	0.049	0
32	370	0.05	0
32	380	0.051	0
32	386	0.052	0
32	400	0.053	0
32	409	0.054	0
32	420	0.055	1
32	429	0.056	0
32	441	0.057	0
32	449	0.058	0
32	458	0.059	0
32	469	0.06	1
32	480	0.061	1
32	490	0.062	0
32	506	0.063	0
32	520	0.064	0
32	528	0.065	0
32	536	0.066	1
32	546	0.067	0
32	570	0.068	0
32	586	0.069	0
32	595	0.07	1
32	604	0.071	0
32	614	0.072	0
32	624	0.073	0
32	633	0.074	0
32	646	0.075	1
32	655	0.076	1
32	665	0.077	0
32	679	0.078	0
32	695	0.079	0
32	703	0.08	0
32	713	0.081	1
32	721	0.082	0
32	746	0.083	0
32	760	0.084	0
32	771	0.085	1
32	780	0.086	0
32	792	0.087	0
32	800	0.088	0
32	809	0.089	0
32	820	0.09	1
32	831	0.091	1
32	841	0.092	0
32	857	0.093	0
32	871	0.094	0
32	879	0.095	0
32	887	0.096	1
32	897	0.097	0
32	918	0.098	0
32	933	0.099	0
32	941	0.1	0
32	947	0.101	0
32	955	0.102	0
32	963	0.103	0
32	969	0.104	0
32	979	0.105	0
32	985	0.106	0
32	991	0.107	0
32	999	0.108	0
32	1007	0.109	0
32	1013	0.11	0
32	1023	0.111	0
32	1029	0.112	0
32	1035	0.113	0
32	1043	0.114	0
32	1051	0.115	0
32	1057	0.116	0
32	1067	0.117	0
32	1073	0.118	0
32	1079	0.119	0
32	1087	0.12	0
32	1095	0.121	0
32	1101	0.122	0
32	1111	0.123	0
32	1117	0.124	0
32	1123	0.125	0
32	1131	0.126	0
32	1139	0.127	0
32	1145	0.128	0
32	1155	0.129	0
32	1161	0.13	0
32	1167	0.131	0
32	1175	0.132	0
32	1183	0.133	0
32	1189	0.134	0
32	1199	0.135	0
32	1205	0.136	0
32	1211	0.137	0
32	1219	0.138	0
32	1227	0.139	0
32	1233	0.14	0
32	1243	0.141	0
32	1249	0.142	0
32	1255	0.143	0
32	1263	0.144	0
32	1271	0.145	0
32	1277	0.146	0
32	1287	0.147	0
32	1293	0.148	0
32	1299	0.149	0
32	1307	0.15	0
32	1315	0.151	0
32	1321	0.152	0
32	1331	0.153	0
32	1337	0.154	0
32	1343	0.155	0
32	1351	0.156	0
32	1359	0.157	0
32	1365	0.158	0
32	1375	0.159	0
32	1381	0.16	0
32	1387	0.161	0
32	1395	0.162	0
32	1403	0.163	0
32	1409	0.164	0
32	1419	0.165	0
32	1425	0.166	0
32	1431	0.167	0
32	1439	0.168	0
32	1447	0.169	0
32	1453	0.17	0
32	1463	0.171	0
32	1469	0.172	0
32	1475	0.173	0
32	1483	0.174	0
32	1491	0.175	0
32	1497	0.176	0
32	1507	0.177	0
32	1513	0.178	0
32	1519	0.179	0
32	1527	0.18	0
32	1535	0.181	0
32	1541	0.182	0
32	1551	0.183	0
32	1557	0.184	0
32	1563	0.185	0
32	1571	0.186	0
32	1579	0.187	0
32	1585	0.188	0
32	1595	0.189	0
32	1601	0.19	0
32	1607	0.191	0
32	1615	0.192	0
32	1623	0.193	0
32	1629	0.194	0
32	1639	0.195	0
32	1645	0.196	0
32	1651	0.197	0
32	1659	0.198	0
32	1667	0.199	0
32	1675	0.2	0
32	1685	0.201	0
32	1691	0.202	0
32	1697	0.203	0
32	1705	0.204	0
32	1713	0.205	0
32	1719	0.206	0
32	1729	0.207	0
32	1735	0.208	0
32	1741	0.209	0
32	1749	0.21	0
32	1757	0.211	0
32	1763	0.212	0
32	1773	0.213	0
32	1779	0.214	0
32	1785	0.215	0
32	1793	0.216	0
32	1801	0.217	0
32	1807	0.218	0
32	1817	0.219	0
32	1823	0.22	0
32	1829	0.221	0
32	1837	0.222	0
32	1845	0.223	0
32	1851	0.224	0
32	1861	0.225	0
32	1867	0.226	0
32	1873	0.227	0
32	1881	0.228	0
32	1889	0.229	0
32	1895	0.23	0
32	1905	0.231	0
32	1911	0.232	0
32	1917	0.233	0
32	1925	0.234	0
32	1933	0.235	0
32	1939	0.236	0
32	1949	0.237	0
32	1955	0.238	0
32	1961	0.239	0
32	1969	0.24	0
32	1977	0.241	0
32	1983	0.242	0
32	1993	0.243	0
32	1999	0.244	0
32	2005	0.245	0
32	2013	0.246	0
32	2021	0.247	0
32	2027	0.248	0
32	2037	0.249	0
32	2043	0.25	0
32	2049	0.251	0
32	2057	0.252	0
32	2065	0.253	0
32	2071	0.254	0
32	2081	0.255	0
32	2087	0.256	0
32	2093	0.257	0
32	2101	0.258	0
32	2109	0.259	0
32	2115	0.26	0
32	2125	0.261	0
32	2131	0.262	0
32	2137	0.263	0
32	2145	0.264	0
32	2153	0.265	0
32	2159	0.266	0
32	2169	0.267	0
32	2175	0.268	0
32	2181	0.269	0
32	2189	0.27	0
32	2197	0.271	0
32	2203	0.272	0
32	2213	0.273	0
32	2219	0.274	0
32	2225	0.275	0
32	2233	0.276	0
32	2241	0.277	0
32	2247	0.278	0
32	2257	0.279	0
32	2263	0.28	0
32	2269	0.281	0
32	2277	0.282	0
32	2285	0.283	0
32	2291	0.284	0
32	2301	0.285	0
32	2307	0.286	0
32	2313	0.287	0
32	2321	0.288	0
32	2329	0.289	0
32	2335	0.29	0
32	2345	0.291	0
32	2351	0.292	0
32	2357	0.293	0
32	2365	0.294	0
32	2373	0.295	0
32	2379	0.296	0
32	2389	0.297	0
32	2395	0.298	0
32	2401	0.299	0
32	2411	0.3	0
32	2419	0.301	0
32	2425	0.302	0
32	2435	0.303	0
32	2441	0.304	0
32	2447	0.305	0
32	2455	0.306	0
32	2463	0.307	0
32	2469	0.308	0
32	2479	0.309	0
32	2485	0.31	0
32	2491	0.311	0
32	2499	0.312	0
32	2507	0.313	0
32	2513	0.314	0
32	2523	0.315	0
32	2529	0.316	0
32	2535	0.317	0
32	2543	0.318	0
32	2551	0.319	0
32	2557	0.32	0
32	2567	0.321	0
32	2573	0.322	0
32	2579	0.323	0
32	2587	0.324	0
32	2595	0.325	0
32	2601	0.326	0
32	2611	0.327	0
32	2617	0.328	0
32	2623	0.329	0
32	2631	0.33	0
32	2639	0.331	0
32	2645	0.332	0
32	2655	0.333	0
32	2661	0.334	0
32	2667	0.335	0
32	2675	0.336	0
32	2683	0.337	0
32	2689	0.338	0
32	2699	0.339	0
32	2705	0.34	0
32	2711	0.341	0
32	2719	0.342	0
32	2727	0.343	0
32	2733	0.344	0
32	2743	0.345	0
32	2749	0.346	0
32	2755	0.347	0
32	2763	0.348	0
32	2771	0.349	0
32	2777	0.35	0
32	2787	0.351	0
32	2793	0.352	0
32	2799	0.353	0
32	2807	0.354	0
32	2815	0.355	0
32	2821	0.356	0
32	2831	0.357	0
32	2837	0.358	0
32	2843	0.359	0
32	2851	0.36	0
32	2859	0.361	0
32	2865	0.362	0
32	2875	0.363	0
32	2881	0.364	0
32	2887	0.365	0
32	2895	0.366	0
32	2903	0.367	0
32	2909	0.368	0
32	2919	0.369	0
32	2925	0.37	0
32	2931	0.371	0
32	2939	0.372	0
32	2947	0.373	0
32	2953	0.374	0
32	2963	0.375	0
32	2969	0.376	0
32	2975	0.377	0
32	2983	0.378	0
32	2991	0.379	0
32	2997	0.38	0
32	3007	0.381	0
32	3013	0.382	0
32	3019	0.383	0
32	3027	0.384	0
32	3035	0.385	0
32	3041	0.386	0
32	3051	0.387	0
32	3057	0.388	0
32	3063	0.389	0
32	3071	0.39	0
32	3079	0.391	0
32	3085	0.392	0
32	3095	0.393	0
32	3101	0.394	0
32	3107	0.395	0
32	3115	0.396	0
32	3123	0.397	0
32	3129	0.398	0
32	3139	0.399	0
32	3147	0.4	0
32	3153	0.401	0
32	3161	0.402	0
32	3169	0.403	0
32	3175	0.404	0
32	3185	0.405	0
32	3191	0.406	0
32	3197	0.407	0
32	3205	0.408	0
32	3213	0.409	0
32	3219	0.41	0
32	3229	0.411	0
32	3235	0.412	0
32	3241	0.413	0
32	3249	0.414	0
32	3257	0.415	0
32	3263	0.416	0
32	3273	0.417	0
32	3279	0.418	0
32	3285	0.419	0
32	3293	0.42	0
32	3301	0.421	0
32	3307	0.422	0
32	3317	0.423	0
32	3323	0.424	0
32	3329	0.425	0
32	3337	0.426	0
32	3345	0.427	0
32	3351	0.428	0
32	3361	0.429	0
32	3367	0.43	0
32	3373	0.431	0
32	3381	0.432	0
32	3389	0.433	0
32	3395	0.434	0
32	3405	0.435	0
32	3411	0.436	0
32	3417	0.437	0
32	3425	0.438	0
32	3433	0.439	0
32	3439	0.44	0
32	3449	0.441	0
32	3455	0.442	0
32	3461	0.443	0
32	3469	0.444	0
32	3477	0.445	0
32	3483	0.446	0
32	3493	0.447	0
32	3499	0.448	0
32	3505	0.449	0
32	3513	0.45	0
32	3521	0.451	0
32	3527	0.452	0
32	3537	0.453	0
32	3543	0.454	0
32	3549	0.455	0
32	3557	0.456	0
32	3565	0.457	0
32	3571	0.458	0
32	3581	0.459	0
32	3587	0.46	0
32	3593	0.461	0
32	3601	0.462	0
32	3609	0.463	0
32	3615	0.464	0
32	3625	0.465	0
32	3631	0.466	0
32	3637	0.467	0
32	3645	0.468	0
32	3653	0.469	0
32	3659	0.47	0
32	3669	0.471	0
32	3675	0.472	0
32	3681	0.473	0
32	3689	0.474	0
32	3697	0.475	0
32	3703	0.476	0
32	3723	0.477	0
32	3730	0.478	0
32	3739	0.479	1
32	3750	0.48	0
32	3760	0.481	0
32	3768	0.482	0
32	3781	0.483	0
32	3790	0.484	1
32	3799	0.485	5
32	3811	0.486	0
32	3825	0.487	0
32	3839	0.488	0
32	3851	0.489	0
32	3857	0.49	5
32	3865	0.491	0
32	3892	0.492	0
32	3906	0.493	0
32	3915	0.494	1
32	3928	0.495	0
32	3936	0.496	0
32	3944	0.497	0
32	3955	0.498	0
32	3966	0.499	1
32	3977	0.5	1
32	3991	0.501	0
32	4003	0.502	0
32	4017	0.503	0
32	4027	0.504	0
32	4035	0.505	1
32	4043	0.506	0
32	4077	0.507	0
32	4089	0.508	0
32	4098	0.509	1
32	4109	0.51	0
32	4119	0.511	0
32	4127	0.512	0
32	4140	0.513	0
32	4149	0.514	1
32	4158	0.515	8
32	4170	0.516	0
32	4184	0.517	0
32	4198	0.518	0
32	4210	0.519	0
32	4216	0.52	8
32	4224	0.521	0
32	4238	0.522	0
32	4251	0.523	8
32	4258	0.524	0
32	4270	0.525	0
32	4278	0.526	0
32	4286	0.527	0
32	4294	0.528	0
32	4302	0.529	0
32	4334	0.53	0
32	4349	0.531	0
32	4358	0.532	1
32	4367	0.533	0
32	4377	0.534	0
32	4387	0.535	0
32	4396	0.536	0
32	4409	0.537	1
32	4418	0.538	1
32	4428	0.539	0
32	4442	0.54	0
32	4458	0.541	0
32	4466	0.542	0
32	4476	0.543	1
32	4484	0.544	0
32	4530	0.545	0
32	4544	0.546	0
32	4555	0.547	1
32	4564	0.548	0
32	4576	0.549	0
32	4584	0.55	0
32	4593	0.551	0
32	4604	0.552	1
32	4615	0.553	16
32	4625	0.554	0
32	4641	0.555	0
32	4655	0.556	0
32	4663	0.557	0
32	4671	0.558	16
32	4681	0.559	0
32	4739	0.56	0
32	4755	0.561	0
32	4764	0.562	1
32	4773	0.563	0
32	4783	0.564	0
32	4793	0.565	0
32	4802	0.566	0
32	4815	0.567	1
32	4824	0.568	2
32	4834	0.569	0
32	4848	0.57	0
32	4864	0.571	0
32	4872	0.572	0
32	4882	0.573	2
32	4890	0.574	0
32	4968	0.575	0
32	4982	0.576	0
32	4993	0.577	1
32	5002	0.578	0
32	5014	0.579	0
32	5022	0.58	0
32	5031	0.581	0
32	5042	0.582	1
32	5053	0.583	32
32	5063	0.584	0
32	5079	0.585	0
32	5093	0.586	0
32	5101	0.587	0
32	5109	0.588	32
32	5119	0.589	0
32	5131	0.59	0
32	5146	0.591	32
32	5153	0.592	0
32	5161	0.593	0
32	5171	0.594	0
32	5181	0.595	0
32	5187	0.596	0
32	5197	0.597	0
32	5295	0.598	0
32	5306	0.599	0
32	5319	0.6	1
32	5330	0.601	0
32	5338	0.602	0
32	5350	0.603	0
32	5359	0.604	0
32	5368	0.605	1
32	5379	0.606	3
32	5391	0.607	0
32	5403	0.608	0
32	5421	0.609	0
32	5429	0.61	0
32	5435	0.611	3
32	5445	0.612	0
32	5577	0.613	0
32	5589	0.614	0
32	5602	0.615	1
32	5611	0.616	0
32	5619	0.617	0
32	5629	0.618	0
32	5640	0.619	0
32	5649	0.62	1
32	5662	0.621	49
32	5672	0.622	7
32	5685	0.623	0
32	5703	0.624	0
32	5719	0.625	0
32	5727	0.626	49
32	5739	0.627	7
32	5886	0.628	0
32	5926	0.629	0
32	5942	0.63	1
32	5953	0.631	0
32	5961	0.632	0
32	5973	0.633	0
32	5982	0.634	0
32	5991	0.635	1
32	6002	0.636	4
32	6014	0.637	0
32	6026	0.638	0
32	6044	0.639	0
32	6052	0.64	0
32	6058	0.641	4
32	6068	0.642	0
32	6224	0.643	0
32	6236	0.644	0
32	6249	0.645	1
32	6258	0.646	0
32	6266	0.647	0
32	6276	0.648	0
32	6287	0.649	0
32	6296	0.65	1
32	6309	0.651	49
32	6319	0.652	7
32	6332	0.653	0
32	6350	0.654	0
32	6366	0.655	0
32	6374	0.656	49
32	6386	0.657	7
32	6533	0.658	0
32	6573	0.659	0
32	6589	0.66	1
32	6600	0.661	0
32	6608	0.662	0
32	6620	0.663	0
32	6629	0.664	0
32	6638	0.665	1
32	6649	0.666	4
32	6661	0.667	0
32	6673	0.668	0
32	6691	0.669	0
32	6699	0.67	0
32	6705	0.671	4
32	6715	0.672	0
32	6871	0.673	0
32	6883	0.674	0
32	6896	0.675	1
32	6905	0.676	0
32	6913	0.677	0
32	6923	0.678	0
32	6934	0.679	0
32	6943	0.68	1
32	6956	0.681	49
32	6966	0.682	7
32	6979	0.683	0
32	6997	0.684	0
32	7013	0.685	0
32	7021	0.686	49
32	7033	0.687	7
32	7046	0.688	0
32	7063	0.689	49
32	7078	0.69	0
32	7090	0.691	0
32	7097	0.692	0
32	7107	0.693	0
32	7271	0.694	0
32	7282	0.695	0
32	7293	0.696	1
32	7304	0.697	0
32	7312	0.698	0
32	7324	0.699	0
32	7335	0.7	0
32	7344	0.701	1
32	7355	0.702	4
32	7367	0.703	0
32	7379	0.704	0
32	7397	0.705	0
32	7405	0.706	0
32	7411	0.707	4
32	7421	0.708	0
32	7577	0.709	0
32	7589	0.71	0
32	7602	0.711	1
32	7611	0.712	0
32	7619	0.713	0
32	7629	0.714	0
32	7640	0.715	0
32	7649	0.716	1
32	7662	0.717	49
32	7672	0.718	7
32	7685	0.719	0
32	7703	0.72	0
32	7719	0.721	0
32	7727	0.722	49
32	7739	0.723	7
32	7886	0.724	0
32	7926	0.725	0
32	7942	0.726	1
32	7953	0.727	0
32	7961	0.728	0
32	7973	0.729	0
32	7982	0.73	0
32	7991	0.731	1
32	8002	0.732	4
32	8014	0.733	0
32	8026	0.734	0
32	8044	0.735	0
32	8052	0.736	0
32	8058	0.737	4
32	8068	0.738	0
32	8224	0.739	0
32	8236	0.74	0
32	8249	0.741	1
32	8258	0.742	0
32	8266	0.743	0
32	8276	0.744	0
32	8287	0.745	0
32	8296	0.746	1
32	8309	0.747	49
32	8319	0.748	7
32	8332	0.749	0
32	8350	0.75	0
32	8366	0.751	0
32	8374	0.752	49
32	8386	0.753	7
32	8399	0.754	0
32	8416	0.755	49
32	8431	0.756	0
32	8443	0.757	0
32	8450	0.758	0
32	8460	0.759	0
32	8624	0.76	0
32	8635	0.761	0
32	8646	0.762	1
32	8657	0.763	0
32	8665	0.764	0
32	8677	0.765	0
32	8686	0.766	0
32	8695	0.767	1
32	8706	0.768	4
32	8718	0.769	0
32	8730	0.77	0
32	8748	0.771	0
32	8756	0.772	0
32	8762	0.773	4
32	8772	0.774	0
32	8928	0.775	0
32	8940	0.776	0
32	8953	0.777	1
32	8962	0.778	0
32	8970	0.779	0
32	8980	0.78	0
32	8991	0.781	0
32	9000	0.782	1
32	9013	0.783	49
32	9023	0.784	7
32	9036	0.785	0
32	9054	0.786	0
32	9070	0.787	0
32	9078	0.788	49
32	9090	0.789	7
32	9237	0.79	0
32	9277	0.791	0
32	9293	0.792	1
32	9304	0.793	0
32	9312	0.794	0
32	9324	0.795	0
32	9333	0.796	0
32	9342	0.797	1
32	9353	0.798	4
32	9365	0.799	0
32	9379	0.8	0
32	9397	0.801	0
32	9405	0.802	0
32	9411	0.803	4
32	9421	0.804	0
32	9577	0.805	0
32	9589	0.806	0
32	9602	0.807	1
32	9611	0.808	0
32	9619	0.809	0
32	9629	0.81	0
32	9640	0.811	0
32	9649	0.812	1
32	9662	0.813	49
32	9672	0.814	7
32	9685	0.815	0
32	9703	0.816	0
32	9719	0.817	0
32	9727	0.818	49
32	9739	0.819	7
32	9752	0.82	0
32	9769	0.821	49
32	9784	0.822	0
32	9796	0.823	0
32	9803	0.824	0
32	9813	0.825	0
32	9977	0.826	0
32	9988	0.827	0
32	9999	0.828	1
32	10010	0.829	0
32	10018	0.83	0
32	10030	0.831	0
32	10039	0.832	0
32	10048	0.833	1
32	10059	0.834	4
32	10071	0.835	0
32	10083	0.836	0
32	10101	0.837	0
32	10109	0.838	0
32	10115	0.839	4
32	10125	0.84	0
32	10281	0.841	0
32	10293	0.842	0
32	10306	0.843	1
32	10315	0.844	0
32	10323	0.845	0
32	10333	0.846	0
32	10344	0.847	0
32	10353	0.848	1
32	10366	0.849	49
32	10376	0.85	7
32	10389	0.851	0
32	10407	0.852	0
32	10423	0.853	0
32	10431	0.854	49
32	10443	0.855	7
32	10456	0.856	0
32	10473	0.857	49
32	10488	0.858	0
32	10500	0.859	0
32	10507	0.86	0
32	10517	0.861	0
32	10681	0.862	0
32	10692	0.863	0
32	10703	0.864	1
32	10714	0.865	0
32	10722	0.866	0
32	10734	0.867	0
32	10743	0.868	0
32	10752	0.869	1
32	10763	0.87	4
32	10775	0.871	0
32	10787	0.872	0
32	10805	0.873	0
32	10813	0.874	0
32	10819	0.875	4
32	10829	0.876	0
32	10985	0.877	0
32	10997	0.878	0
32	11010	0.879	1
32	11019	0.88	0
32	11027	0.881	0
32	11037	0.882	0
32	11048	0.883	0
32	11057	0.884	1
32	11070	0.885	49
32	11080	0.886	7
32	11093	0.887	0
32	11111	0.888	0
32	11127	0.889	0
32	11135	0.89	49
32	11147	0.891	7
32	11160	0.892	0
32	11177	0.893	49
32	11192	0.894	0
32	11204	0.895	0
32	11211	0.896	0
32	11221	0.897	0
32	11385	0.898	0
32	11396	0.899	0
32	11409	0.9	1
32	11420	0.901	0
32	11428	0.902	0
32	11440	0.903	0
32	11449	0.904	0
32	11458	0.905	1
32	11469	0.906	4
32	11481	0.907	0
32	11493	0.908	0
32	11511	0.909	0
32	11519	0.91	0
32	11525	0.911	4
32	11535	0.912	0
32	11691	0.913	0
32	11703	0.914	0
32	11716	0.915	1
32	11725	0.916	0
32	11733	0.917	0
32	11743	0.918	0
32	11754	0.919	0
32	11763	0.92	1
32	11776	0.921	49
32	11786	0.922	7
32	11799	0.923	0
32	11817	0.924	0
32	11833	0.925	0
32	11841	0.926	49
32	11853	0.927	7
32	11866	0.928	0
32	11883	0.929	49
32	11898	0.93	0
32	11910	0.931	0
32	11917	0.932	0
32	11927	0.933	0
32	12091	0.934	0
32	12102	0.935	0
32	12113	0.936	1
32	12124	0.937	0
32	12132	0.938	0
32	12144	0.939	0
32	12153	0.94	0
32	12162	0.941	1
32	12173	0.942	4
32	12185	0.943	0
32	12197	0.944	0
32	12215	0.945	0
32	12223	0.946	0
32	12229	0.947	4
32	12239	0.948	0
32	12395	0.949	0
32	12407	0.95	0
32	12420	0.951	1
32	12429	0.952	0
32	12437	0.953	0
32	12447	0.954	0
32	12458	0.955	0
32	12467	0.956	1
32	12480	0.957	49
32	12490	0.958	7
32	12503	0.959	0
32	12521	0.96	0
32	12537	0.961	0
32	12545	0.962	49
32	12557	0.963	7
32	12570	0.964	0
32	12587	0.965	49
32	12602	0.966	0
32	12614	0.967	0
32	12621	0.968	0
32	12631	0.969	0
32	12795	0.97	0
32	12806	0.971	0
32	12817	0.972	1
32	12828	0.973	0
32	12836	0.974	0
32	12848	0.975	0
32	12857	0.976	0
32	12866	0.977	1
32	12877	0.978	4
32	12889	0.979	0
32	12901	0.98	0
32	12919	0.981	0
32	12927	0.982	0
32	12933	0.983	4
32	12943	0.984	0
32	13099	0.985	0
32	13111	0.986	0
32	13124	0.987	1
32	13133	0.988	0
32	13141	0.989	0
32	13151	0.99	0
32	13162	0.991	0
32	13171	0.992	1
32	13184	0.993	49
32	13194	0.994	7
32	13207	0.995	0
32	13225	0.996	0
32	13241	0.997	0
32	13249	0.998	49
32	13261	0.999	7
32	13276	1	0
32	13293	1.001	49
32	13308	1.002	0
32	13320	1.003	0
32	13327	1.004	0
32	13337	1.005	0
32	13501	1.006	0
32	13512	1.007	0
32	13523	1.008	1
32	13534	1.009	0
32	13542	1.01	0
32	13554	1.011	0
32	13563	1.012	0
32	13572	1.013	1
32	13583	1.014	4
32	13595	1.015	0
32	13607	1.016	0
32	13625	1.017	0
32	13633	1.018	0
32	13639	1.019	4
32	13649	1.02	0
32	13805	1.021	0
32	13817	1.022	0
32	13830	1.023	1
32	13839	1.024	0
32	13847	1.025	0
32	13857	1.026	0
32	13868	1.027	0
32	13877	1.028	1
32	13890	1.029	49
32	13900	1.03	7
32	13913	1.031	0
32	13931	1.032	0
32	13947	1.033	0
32	13955	1.034	49
32	13967	1.035	7
32	13980	1.036	0
32	13997	1.037	49
32	14012	1.038	0
32	14024	1.039	0
32	14031	1.04	0
32	14041	1.041	0
32	14205	1.042	0
32	14216	1.043	0
32	14227	1.044	1
32	14238	1.045	0
32	14246	1.046	0
32	14258	1.047	0
32	14267	1.048	0
32	14276	1.049	1
32	14288	1.05	4
32	14300	1.051	0
32	14312	1.052	0
32	14330	1.053	0
32	14338	1.054	0
32	14344	1.055	4
32	14354	1.056	0
32	14368	1.057	0
32	14379	1.058	4
32	14390	1.059	0
32	14398	1.06	0
32	14406	1.061	0
32	14416	1.062	0
32	14424	1.063	0
32	14430	1.064	0
32	14584	1.065	0
32	14595	1.066	0
32	14604	1.067	1
32	14615	1.068	0
32	14625	1.069	0
32	14633	1.07	0
32	14646	1.071	0
32	14655	1.072	1
32	14664	1.073	49
32	14676	1.074	7
32	14691	1.075	0
32	14707	1.076	0
32	14725	1.077	0
32	14733	1.078	49
32	14741	1.079	7
32	14756	1.08	0
32	14775	1.081	49
32	14788	1.082	0
32	14802	1.083	0
32	14809	1.084	0
32	14815	1.085	0
32	14981	1.086	0
32	14994	1.087	0
32	15003	1.088	1
32	15016	1.089	0
32	15024	1.09	0
32	15032	1.091	0
32	15043	1.092	0
32	15054	1.093	1
32	15063	1.094	4
32	15077	1.095	0
32	15089	1.096	0
32	15103	1.097	0
32	15113	1.098	0
32	15121	1.099	4
32	15131	1.1	0
32	15289	1.101	0
32	15301	1.102	0
32	15310	1.103	1
32	15321	1.104	0
32	15331	1.105	0
32	15339	1.106	0
32	15352	1.107	0
32	15361	1.108	1
32	15370	1.109	49
32	15382	1.11	7
32	15397	1.111	0
32	15413	1.112	0
32	15431	1.113	0
32	15439	1.114	49
32	15447	1.115	7
32	15596	1.116	0
32	15614	1.117	0
32	15628	1.118	8
32	15642	1.119	0
32	15652	1.12	0
32	15662	1.121	0
32	15675	1.122	0
32	15686	1.123	1
32	15695	1.124	4
32	15735	1.125	0
32	15751	1.126	0
32	15765	1.127	0
32	15775	1.128	0
32	15783	1.129	4
32	15791	1.13	0
32	15949	1.131	0
32	15961	1.132	0
32	15970	1.133	1
32	15981	1.134	0
32	15991	1.135	0
32	15999	1.136	0
32	16012	1.137	0
32	16021	1.138	1
32	16030	1.139	49
32	16042	1.14	7
32	16057	1.141	0
32	16073	1.142	0
32	16091	1.143	0
32	16099	1.144	49
32	16107	1.145	7
32	16122	1.146	0
32	16141	1.147	49
32	16154	1.148	0
32	16168	1.149	0
32	16175	1.15	0
32	16181	1.151	0
32	16347	1.152	0
32	16360	1.153	0
32	16369	1.154	1
32	16382	1.155	0
32	16390	1.156	0
32	16398	1.157	0
32	16409	1.158	0
32	16420	1.159	1
32	16429	1.16	4
32	16443	1.161	0
32	16455	1.162	0
32	16469	1.163	0
32	16479	1.164	0
32	16487	1.165	4
32	16495	1.166	0
32	16653	1.167	0
32	16665	1.168	0
32	16674	1.169	1
32	16685	1.17	0
32	16695	1.171	0
32	16703	1.172	0
32	16716	1.173	0
32	16725	1.174	1
32	16734	1.175	49
32	16746	1.176	7
32	16761	1.177	0
32	16777	1.178	0
32	16795	1.179	0
32	16803	1.18	49
32	16811	1.181	7
32	16826	1.182	0
32	16845	1.183	49
32	16858	1.184	0
32	16872	1.185	0
32	16879	1.186	0
32	16885	1.187	0
32	17051	1.188	0
32	17064	1.189	0
32	17073	1.19	1
32	17086	1.191	0
32	17094	1.192	0
32	17102	1.193	0
32	17113	1.194	0
32	17124	1.195	1
32	17133	1.196	4
32	17147	1.197	0
32	17159	1.198	0
32	17173	1.199	0
32	17185	1.2	0
32	17193	1.201	4
32	17201	1.202	0
32	17359	1.203	0
32	17371	1.204	0
32	17380	1.205	1
32	17391	1.206	0
32	17401	1.207	0
32	17409	1.208	0
32	17422	1.209	0
32	17431	1.21	1
32	17440	1.211	49
32	17452	1.212	7
32	17467	1.213	0
32	17483	1.214	0
32	17501	1.215	0
32	17509	1.216	49
32	17517	1.217	7
32	17532	1.218	0
32	17551	1.219	49
32	17564	1.22	0
32	17578	1.221	0
32	17585	1.222	0
32	17591	1.223	0
32	17757	1.224	0
32	17770	1.225	0
32	17779	1.226	1
32	17792	1.227	0
32	17800	1.228	0
32	17808	1.229	0
32	17819	1.23	0
32	17830	1.231	1
32	17839	1.232	4
32	17853	1.233	0
32	17865	1.234	0
32	17879	1.235	0
32	17889	1.236	0
32	17897	1.237	4
32	17905	1.238	0
32	18063	1.239	0
32	18075	1.24	0
32	18084	1.241	1
32	18095	1.242	0
32	18105	1.243	0
32	18113	1.244	0
32	18126	1.245	0
32	18135	1.246	1
32	18144	1.247	49
32	18156	1.248	7
32	18171	1.249	0
32	18187	1.25	0
32	18205	1.251	0
32	18213	1.252	49
32	18221	1.253	7
32	18236	1.254	0
32	18255	1.255	49
32	18268	1.256	0
32	18282	1.257	0
32	18289	1.258	0
32	18295	1.259	0
32	18461	1.26	0
32	18474	1.261	0
32	18483	1.262	1
32	18496	1.263	0
32	18504	1.264	0
32	18512	1.265	0
32	18523	1.266	0
32	18534	1.267	1
32	18543	1.268	4
32	18557	1.269	0
32	18569	1.27	0
32	18583	1.271	0
32	18593	1.272	0
32	18601	1.273	4
32	18609	1.274	0
32	18767	1.275	0
32	18779	1.276	0
32	18788	1.277	1
32	18799	1.278	0
32	18809	1.279	0
32	18817	1.28	0
32	18830	1.281	0
32	18839	1.282	1
32	18848	1.283	49
32	18860	1.284	7
32	18875	1.285	0
32	18891	1.286	0
32	18909	1.287	0
32	18917	1.288	49
32	18925	1.289	7
32	18940	1.29	0
32	18959	1.291	49
32	18972	1.292	0
32	18986	1.293	0
32	18993	1.294	0
32	18999	1.295	0
32	19165	1.296	0
32	19178	1.297	0
32	19187	1.298	1
32	19200	1.299	0
32	19210	1.3	0
32	19218	1.301	0
32	19229	1.302	0
32	19240	1.303	1
32	19249	1.304	4
32	19263	1.305	0
32	19275	1.306	0
32	19289	1.307	0
32	19299	1.308	0
32	19307	1.309	4
32	19315	1.31	0
32	19473	1.311	0
32	19485	1.312	0
32	19494	1.313	1
32	19505	1.314	0
32	19515	1.315	0
32	19523	1.316	0
32	19536	1.317	0
32	19545	1.318	1
32	19554	1.319	49
32	19566	1.32	7
32	19581	1.321	0
32	19597	1.322	0
32	19615	1.323	0
32	19623	1.324	49
32	19631	1.325	7
32	19646	1.326	0
32	19663	1.327	49
32	19676	1.328	7
32	19691	1.329	0
32	19701	1.33	0
32	19710	1.331	0
32	19854	1.332	0
32	19867	1.333	0
32	19902	1.334	1
32	19919	1.335	0
32	19927	1.336	0
32	19935	1.337	0
32	19946	1.338	0
32	19957	1.339	1
32	19966	1.34	4
32	19980	1.341	0
32	19992	1.342	0
32	20006	1.343	0
32	20016	1.344	0
32	20024	1.345	4
32	20032	1.346	0
32	20190	1.347	0
32	20202	1.348	0
32	20211	1.349	1
32	20222	1.35	0
32	20232	1.351	0
32	20240	1.352	0
32	20253	1.353	0
32	20262	1.354	1
32	20271	1.355	49
32	20283	1.356	7
32	20298	1.357	0
32	20314	1.358	0
32	20332	1.359	0
32	20340	1.36	49
32	20348	1.361	7
32	20363	1.362	0
32	20382	1.363	49
32	20395	1.364	0
32	20409	1.365	0
32	20416	1.366	0
32	20422	1.367	0
32	20588	1.368	0
32	20601	1.369	0
32	20610	1.37	1
32	20623	1.371	0
32	20631	1.372	0
32	20639	1.373	0
32	20650	1.374	0
32	20661	1.375	1
32	20670	1.376	4
32	20684	1.377	0
32	20696	1.378	0
32	20710	1.379	0
32	20720	1.38	0
32	20728	1.381	4
32	20736	1.382	0
32	20894	1.383	0
32	20906	1.384	0
32	20915	1.385	1
32	20926	1.386	0
32	20936	1.387	0
32	20944	1.388	0
32	20957	1.389	0
32	20966	1.39	1
32	20975	1.391	49
32	20987	1.392	7
32	21002	1.393	0
32	21018	1.394	0
32	21036	1.395	0
32	21044	1.396	49
32	21052	1.397	7
32	21067	1.398	0
32	21086	1.399	49
32	21101	1.4	0
32	21115	1.401	0
32	21122	1.402	0
32	21128	1.403	0
32	21294	1.404	0
32	21307	1.405	0
32	21316	1.406	1
32	21329	1.407	0
32	21337	1.408	0
32	21345	1.409	0
32	21356	1.41	0
32	21367	1.411	1
32	21376	1.412	4
32	21390	1.413	0
32	21402	1.414	0
32	21416	1.415	0
32	21426	1.416	0
32	21434	1.417	4
32	21442	1.418	0
32	21600	1.419	0
32	21612	1.42	0
32	21621	1.421	1
32	21632	1.422	0
32	21642	1.423	0
32	21650	1.424	0
32	21663	1.425	0
32	21672	1.426	1
32	21681	1.427	49
32	21693	1.428	7
32	21708	1.429	0
32	21724	1.43	0
32	21742	1.431	0
32	21750	1.432	49
32	21758	1.433	7
32	21773	1.434	0
32	21790	1.435	49
32	21803	1.436	7
32	21818	1.437	0
32	21828	1.438	0
32	21837	1.439	0
32	21981	1.44	0
32	21994	1.441	0
32	22029	1.442	1
32	22046	1.443	0
32	22054	1.444	0
32	22062	1.445	0
32	22073	1.446	0
32	22084	1.447	1
32	22093	1.448	4
32	22107	1.449	0
32	22119	1.45	0
32	22133	1.451	0
32	22143	1.452	0
32	22151	1.453	4
32	22159	1.454	0
32	22317	1.455	0
32	22329	1.456	0
32	22338	1.457	1
32	22349	1.458	0
32	22359	1.459	0
32	22367	1.46	0
32	22380	1.461	0
32	22389	1.462	1
32	22398	1.463	49
32	22410	1.464	7
32	22425	1.465	0
32	22441	1.466	0
32	22459	1.467	0
32	22467	1.468	49
32	22475	1.469	7
32	22490	1.47	0
32	22509	1.471	49
32	22522	1.472	0
32	22536	1.473	0
32	22543	1.474	0
32	22549	1.475	0
32	22715	1.476	0
32	22728	1.477	0
32	22737	1.478	1
32	22750	1.479	0
32	22758	1.48	0
32	22766	1.481	0
32	22777	1.482	0
32	22788	1.483	1
32	22797	1.484	4
32	22811	1.485	0
32	22823	1.486	0
32	22837	1.487	0
32	22847	1.488	0
32	22855	1.489	4
32	22863	1.49	0
32	23021	1.491	0
32	23033	1.492	0
32	23042	1.493	1
32	23053	1.494	0
32	23063	1.495	0
32	23071	1.496	0
32	23084	1.497	0
32	23093	1.498	1
32	23102	1.499	49
32	23116	1.5	7
32	23131	1.501	0
32	23147	1.502	0
32	23165	1.503	0
32	23173	1.504	49
32	23181	1.505	7
32	23196	1.506	0
32	23213	1.507	49
32	23226	1.508	7
32	23241	1.509	0
32	23251	1.51	0
32	23260	1.511	0
32	23404	1.512	0
32	23417	1.513	0
32	23452	1.514	1
32	23469	1.515	0
32	23477	1.516	0
32	23485	1.517	0
32	23496	1.518	0
32	23507	1.519	1
32	23516	1.52	4
32	23530	1.521	0
32	23542	1.522	0
32	23556	1.523	0
32	23566	1.524	0
32	23574	1.525	4
32	23582	1.526	0
32	23740	1.527	0
32	23752	1.528	0
32	23761	1.529	1
32	23772	1.53	0
32	23782	1.531	0
32	23790	1.532	0
32	23803	1.533	0
32	23812	1.534	1
32	23821	1.535	49
32	23833	1.536	7
32	23848	1.537	0
32	23864	1.538	0
32	23882	1.539	0
32	23890	1.54	49
32	23898	1.541	7
32	23913	1.542	0
32	23930	1.543	49
32	23943	1.544	7
32	23958	1.545	0
32	23968	1.546	0
32	23977	1.547	0
32	24121	1.548	0
32	24134	1.549	0
32	24169	1.55	1
32	24186	1.551	0
32	24194	1.552	0
32	24202	1.553	0
32	24213	1.554	0
32	24224	1.555	1
32	24233	1.556	4
32	24247	1.557	0
32	24259	1.558	0
32	24273	1.559	0
32	24283	1.56	0
32	24291	1.561	4
32	24299	1.562	0
32	24457	1.563	0
32	24469	1.564	0
32	24478	1.565	1
32	24489	1.566	0
32	24499	1.567	0
32	24507	1.568	0
32	24520	1.569	0
32	24529	1.57	1
32	24538	1.571	49
32	24550	1.572	7
32	24565	1.573	0
32	24581	1.574	0
32	24599	1.575	0
32	24607	1.576	49
32	24615	1.577	7
32	24630	1.578	0
32	24649	1.579	49
32	24662	1.58	0
32	24676	1.581	0
32	24683	1.582	0
32	24689	1.583	0
32	24855	1.584	0
32	24868	1.585	0
32	24877	1.586	1
32	24890	1.587	0
32	24898	1.588	0
32	24906	1.589	0
32	24917	1.59	0
32	24928	1.591	1
32	24937	1.592	4
32	24951	1.593	0
32	24963	1.594	0
32	24977	1.595	0
32	24987	1.596	0
32	24995	1.597	4
32	25003	1.598	0
32	25161	1.599	0
32	25175	1.6	0
32	25184	1.601	1
32	25195	1.602	0
32	25205	1.603	0
32	25213	1.604	0
32	25226	1.605	0
32	25235	1.606	1
32	25244	1.607	49
32	25256	1.608	7
32	25271	1.609	0
32	25287	1.61	0
32	25305	1.611	0
32	25313	1.612	49
32	25321	1.613	7
32	25336	1.614	0
32	25353	1.615	49
32	25366	1.616	7
32	25381	1.617	0
32	25391	1.618	0
32	25400	1.619	0
32	25544	1.62	0
32	25557	1.621	0
32	25592	1.622	1
32	25609	1.623	0
32	25617	1.624	0
32	25625	1.625	0
32	25636	1.626	0
32	25647	1.627	1
32	25656	1.628	4
32	25670	1.629	0
32	25682	1.63	0
32	25696	1.631	0
32	25706	1.632	0
32	25714	1.633	4
32	25722	1.634	0
32	25738	1.635	0
32	25749	1.636	4
32	25756	1.637	0
32	25766	1.638	0
32	25776	1.639	0
32	25784	1.64	0
32	25794	1.641	0
32	25800	1.642	0
32	25950	1.643	0
32	25963	1.644	0
32	25974	1.645	1
32	25983	1.646	0
32	25995	1.647	0
32	26003	1.648	0
32	26012	1.649	0
32	26023	1.65	1
32	26034	1.651	49
32	26044	1.652	7
32	26061	1.653	0
32	26077	1.654	0
32	26091	1.655	0
32	26101	1.656	49
32	26111	1.657	7
32	26124	1.658	0
32	26143	1.659	49
32	26156	1.66	7
32	26167	1.661	0
32	26179	1.662	0
32	26190	1.663	0
32	26332	1.664	0
32	26347	1.665	0
32	26382	1.666	1
32	26395	1.667	0
32	26405	1.668	0
32	26415	1.669	0
32	26424	1.67	0
32	26437	1.671	1
32	26446	1.672	4
32	26456	1.673	0
32	26470	1.674	0
32	26486	1.675	0
32	26494	1.676	0
32	26504	1.677	4
32	26512	1.678	0
32	26666	1.679	0
32	26680	1.68	0
32	26691	1.681	1
32	26700	1.682	0
32	26712	1.683	0
32	26720	1.684	0
32	26729	1.685	0
32	26740	1.686	1
32	26751	1.687	49
32	26761	1.688	7
32	26778	1.689	0
32	26794	1.69	0
32	26808	1.691	0
32	26818	1.692	49
32	26828	1.693	7
32	26841	1.694	0
32	26862	1.695	49
32	26875	1.696	0
32	26885	1.697	0
32	26894	1.698	0
32	26902	1.699	0
32	27068	1.7	0
32	27083	1.701	0
32	27092	1.702	1
32	27101	1.703	0
32	27111	1.704	0
32	27121	1.705	0
32	27130	1.706	0
32	27143	1.707	1
32	27152	1.708	4
32	27162	1.709	0
32	27176	1.71	0
32	27192	1.711	0
32	27200	1.712	0
32	27210	1.713	4
32	27218	1.714	0
32	27372	1.715	0
32	27386	1.716	0
32	27397	1.717	1
32	27406	1.718	0
32	27418	1.719	0
32	27426	1.72	0
32	27435	1.721	0
32	27446	1.722	1
32	27457	1.723	49
32	27467	1.724	7
32	27484	1.725	0
32	27500	1.726	0
32	27514	1.727	0
32	27524	1.728	49
32	27534	1.729	7
32	27547	1.73	0
32	27568	1.731	49
32	27581	1.732	0
32	27591	1.733	0
32	27600	1.734	0
32	27608	1.735	0
32	27772	1.736	0
32	27787	1.737	0
32	27796	1.738	1
32	27805	1.739	0
32	27815	1.74	0
32	27825	1.741	0
32	27834	1.742	0
32	27847	1.743	1
32	27856	1.744	4
32	27866	1.745	0
32	27880	1.746	0
32	27896	1.747	0
32	27904	1.748	0
32	27914	1.749	4
32	27922	1.75	0
32	27934	1.751	0
32	27947	1.752	4
32	27956	1.753	0
32	27964	1.754	0
32	27976	1.755	0
32	27984	1.756	0
32	27990	1.757	0
32	27998	1.758	0
32	28150	1.759	0
32	28161	1.76	0
32	28174	1.761	1
32	28183	1.762	0
32	28191	1.763	0
32	28201	1.764	0
32	28212	1.765	0
32	28221	1.766	1
32	28234	1.767	49
32	28244	1.768	7
32	28257	1.769	0
32	28275	1.77	0
32	28291	1.771	0
32	28299	1.772	49
32	28311	1.773	7
32	28324	1.774	0
32	28339	1.775	49
32	28354	1.776	7
32	28367	1.777	0
32	28377	1.778	0
32	28390	1.779	0
32	28532	1.78	0
32	28543	1.781	0
32	28580	1.782	1
32	28595	1.783	0
32	28603	1.784	0
32	28615	1.785	0
32	28624	1.786	0
32	28633	1.787	1
32	28644	1.788	4
32	28656	1.789	0
32	28668	1.79	0
32	28686	1.791	0
32	28694	1.792	0
32	28700	1.793	4
32	28710	1.794	0
32	28866	1.795	0
32	28878	1.796	0
32	28891	1.797	1
32	28900	1.798	0
32	28908	1.799	0
32	28920	1.8	0
32	28931	1.801	0
32	28940	1.802	1
32	28953	1.803	49
32	28963	1.804	7
32	28976	1.805	0
32	28994	1.806	0
32	29010	1.807	0
32	29018	1.808	49
32	29030	1.809	7
32	29043	1.81	0
32	29058	1.811	49
32	29073	1.812	7
32	29086	1.813	0
32	29096	1.814	0
32	29109	1.815	0
32	29251	1.816	0
32	29262	1.817	0
32	29299	1.818	1
32	29314	1.819	0
32	29322	1.82	0
32	29334	1.821	0
32	29343	1.822	0
32	29352	1.823	1
32	29363	1.824	4
32	29375	1.825	0
32	29387	1.826	0
32	29405	1.827	0
32	29413	1.828	0
32	29419	1.829	4
32	29429	1.83	0
32	29585	1.831	0
32	29597	1.832	0
32	29610	1.833	1
32	29619	1.834	0
32	29627	1.835	0
32	29637	1.836	0
32	29648	1.837	0
32	29657	1.838	1
32	29670	1.839	49
32	29680	1.84	7
32	29693	1.841	0
32	29711	1.842	0
32	29727	1.843	0
32	29735	1.844	49
32	29747	1.845	7
32	29760	1.846	0
32	29777	1.847	49
32	29792	1.848	0
32	29804	1.849	0
32	29811	1.85	0
32	29821	1.851	0
32	29985	1.852	0
32	29996	1.853	0
32	30007	1.854	1
32	30018	1.855	0
32	30026	1.856	0
32	30038	1.857	0
32	30047	1.858	0
32	30056	1.859	1
32	30067	1.86	4
32	30079	1.861	0
32	30091	1.862	0
32	30109	1.863	0
32	30117	1.864	0
32	30123	1.865	4
32	30133	1.866	0
32	30147	1.867	0
32	30158	1.868	4
33	11	0.001	0
33	17	0.002	0
33	27	0.003	0
33	33	0.004	0
33	39	0.005	0
33	47	0.006	0
33	55	0.007	0
33	61	0.008	0
33	71	0.009	0
33	77	0.01	0
33	83	0.011	0
33	91	0.012	0
33	99	0.013	0
33	105	0.014	0
33	115	0.015	0
33	121	0.016	0
33	127	0.017	0
33	135	0.018	0
33	143	0.019	0
33	149	0.02	0
33	159	0.021	0
33	165	0.022	0
33	171	0.023	0
33	179	0.024	0
33	187	0.025	0
33	193	0.026	0
33	203	0.027	0
33	209	0.028	0
33	215	0.029	0
33	223	0.03	0
33	231	0.031	0
33	237	0.032	0
33	247	0.033	0
33	253	0.034	0
33	259	0.035	0
33	267	0.036	0
33	275	0.037	0
33	281	0.038	0
33	291	0.039	0
33	297	0.04	0
33	303	0.041	0
33	311	0.042	0
33	319	0.043	0
33	325	0.044	0
33	335	0.045	0
33	341	0.046	0
33	347	0.047	0
33	355	0.048	0
33	363	0.049	0
33	370	0.05	0
33	380	0.051	0
33	386	0.052	0
33	400	0.053	0
33	409	0.054	0
33	420	0.055	0
33	429	0.056	0
33	441	0.057	0
33	449	0.058	0
33	458	0.059	0
33	469	0.06	0
33	480	0.061	0
33	490	0.062	0
33	506	0.063	0
33	520	0.064	0
33	528	0.065	0
33	536	0.066	0
33	546	0.067	0
33	570	0.068	0
33	586	0.069	0
33	595	0.07	0
33	604	0.071	0
33	614	0.072	0
33	624	0.073	0
33	633	0.074	0
33	646	0.075	0
33	655	0.076	0
33	665	0.077	0
33	679	0.078	0
33	695	0.079	0
33	703	0.08	0
33	713	0.081	0
33	721	0.082	0
33	746	0.083	0
33	760	0.084	0
33	771	0.085	0
33	780	0.086	0
33	792	0.087	0
33	800	0.088	0
33	809	0.089	0
33	820	0.09	0
33	831	0.091	0
33	841	0.092	0
33	857	0.093	0
33	871	0.094	0
33	879	0.095	0
33	887	0.096	0
33	897	0.097	0
33	918	0.098	0
33	933	0.099	0
33	941	0.1	0
33	947	0.101	0
33	955	0.102	0
33	963	0.103	0
33	969	0.104	0
33	979	0.105	0
33	985	0.106	0
33	991	0.107	0
33	999	0.108	0
33	1007	0.109	0
33	1013	0.11	0
33	1023	0.111	0
33	1029	0.112	0
33	1035	0.113	0
33	1043	0.114	0
33	1051	0.115	0
33	1057	0.116	0
33	1067	0.117	0
33	1073	0.118	0
33	1079	0.119	0
33	1087	0.12	0
33	1095	0.121	0
33	1101	0.122	0
33	1111	0.123	0
33	1117	0.124	0
33	1123	0.125	0
33	1131	0.126	0
33	1139	0.127	0
33	1145	0.128	0
33	1155	0.129	0
33	1161	0.13	0
33	1167	0.131	0
33	1175	0.132	0
33	1183	0.133	0
33	1189	0.134	0
33	1199	0.135	0
33	1205	0.136	0
33	1211	0.137	0
33	1219	0.138	0
33	1227	0.139	0
33	1233	0.14	0
33	1243	0.141	0
33	1249	0.142	0
33	1255	0.143	0
33	1263	0.144	0
33	1271	0.145	0
33	1277	0.146	0
33	1287	0.147	0
33	1293	0.148	0
33	1299	0.149	0
33	1307	0.15	0
33	1315	0.151	0
33	1321	0.152	0
33	1331	0.153	0
33	1337	0.154	0
33	1343	0.155	0
33	1351	0.156	0
33	1359	0.157	0
33	1365	0.158	0
33	1375	0.159	0
33	1381	0.16	0
33	1387	0.161	0
33	1395	0.162	0
33	1403	0.163	0
33	1409	0.164	0
33	1419	0.165	0
33	1425	0.166	0
33	1431	0.167	0
33	1439	0.168	0
33	1447	0.169	0
33	1453	0.17	0
33	1463	0.171	0
33	1469	0.172	0
33	1475	0.173	0
33	1483	0.174	0
33	1491	0.175	0
33	1497	0.176	0
33	1507	0.177	0
33	1513	0.178	0
33	1519	0.179	0
33	1527	0.18	0
33	1535	0.181	0
33	1541	0.182	0
33	1551	0.183	0
33	1557	0.184	0
33	1563	0.185	0
33	1571	0.186	0
33	1579	0.187	0
33	1585	0.188	0
33	1595	0.189	0
33	1601	0.19	0
33	1607	0.191	0
33	1615	0.192	0
33	1623	0.193	0
33	1629	0.194	0
33	1639	0.195	0
33	1645	0.196	0
33	1651	0.197	0
33	1659	0.198	0
33	1667	0.199	0
33	1675	0.2	0
33	1685	0.201	0
33	1691	0.202	0
33	1697	0.203	0
33	1705	0.204	0
33	1713	0.205	0
33	1719	0.206	0
33	1729	0.207	0
33	1735	0.208	0
33	1741	0.209	0
33	1749	0.21	0
33	1757	0.211	0
33	1763	0.212	0
33	1773	0.213	0
33	1779	0.214	0
33	1785	0.215	0
33	1793	0.216	0
33	1801	0.217	0
33	1807	0.218	0
33	1817	0.219	0
33	1823	0.22	0
33	1829	0.221	0
33	1837	0.222	0
33	1845	0.223	0
33	1851	0.224	0
33	1861	0.225	0
33	1867	0.226	0
33	1873	0.227	0
33	1881	0.228	0
33	1889	0.229	0
33	1895	0.23	0
33	1905	0.231	0
33	1911	0.232	0
33	1917	0.233	0
33	1925	0.234	0
33	1933	0.235	0
33	1939	0.236	0
33	1949	0.237	0
33	1955	0.238	0
33	1961	0.239	0
33	1969	0.24	0
33	1977	0.241	0
33	1983	0.242	0
33	1993	0.243	0
33	1999	0.244	0
33	2005	0.245	0
33	2013	0.246	0
33	2021	0.247	0
33	2027	0.248	0
33	2037	0.249	0
33	2043	0.25	0
33	2049	0.251	0
33	2057	0.252	0
33	2065	0.253	0
33	2071	0.254	0
33	2081	0.255	0
33	2087	0.256	0
33	2093	0.257	0
33	2101	0.258	0
33	2109	0.259	0
33	2115	0.26	0
33	2125	0.261	0
33	2131	0.262	0
33	2137	0.263	0
33	2145	0.264	0
33	2153	0.265	0
33	2159	0.266	0
33	2169	0.267	0
33	2175	0.268	0
33	2181	0.269	0
33	2189	0.27	0
33	2197	0.271	0
33	2203	0.272	0
33	2213	0.273	0
33	2219	0.274	0
33	2225	0.275	0
33	2233	0.276	0
33	2241	0.277	0
33	2247	0.278	0
33	2257	0.279	0
33	2263	0.28	0
33	2269	0.281	0
33	2277	0.282	0
33	2285	0.283	0
33	2291	0.284	0
33	2301	0.285	0
33	2307	0.286	0
33	2313	0.287	0
33	2321	0.288	0
33	2329	0.289	0
33	2335	0.29	0
33	2345	0.291	0
33	2351	0.292	0
33	2357	0.293	0
33	2365	0.294	0
33	2373	0.295	0
33	2379	0.296	0
33	2389	0.297	0
33	2395	0.298	0
33	2401	0.299	0
33	2411	0.3	0
33	2419	0.301	0
33	2425	0.302	0
33	2435	0.303	0
33	2441	0.304	0
33	2447	0.305	0
33	2455	0.306	0
33	2463	0.307	0
33	2469	0.308	0
33	2479	0.309	0
33	2485	0.31	0
33	2491	0.311	0
33	2499	0.312	0
33	2507	0.313	0
33	2513	0.314	0
33	2523	0.315	0
33	2529	0.316	0
33	2535	0.317	0
33	2543	0.318	0
33	2551	0.319	0
33	2557	0.32	0
33	2567	0.321	0
33	2573	0.322	0
33	2579	0.323	0
33	2587	0.324	0
33	2595	0.325	0
33	2601	0.326	0
33	2611	0.327	0
33	2617	0.328	0
33	2623	0.329	0
33	2631	0.33	0
33	2639	0.331	0
33	2645	0.332	0
33	2655	0.333	0
33	2661	0.334	0
33	2667	0.335	0
33	2675	0.336	0
33	2683	0.337	0
33	2689	0.338	0
33	2699	0.339	0
33	2705	0.34	0
33	2711	0.341	0
33	2719	0.342	0
33	2727	0.343	0
33	2733	0.344	0
33	2743	0.345	0
33	2749	0.346	0
33	2755	0.347	0
33	2763	0.348	0
33	2771	0.349	0
33	2777	0.35	0
33	2787	0.351	0
33	2793	0.352	0
33	2799	0.353	0
33	2807	0.354	0
33	2815	0.355	0
33	2821	0.356	0
33	2831	0.357	0
33	2837	0.358	0
33	2843	0.359	0
33	2851	0.36	0
33	2859	0.361	0
33	2865	0.362	0
33	2875	0.363	0
33	2881	0.364	0
33	2887	0.365	0
33	2895	0.366	0
33	2903	0.367	0
33	2909	0.368	0
33	2919	0.369	0
33	2925	0.37	0
33	2931	0.371	0
33	2939	0.372	0
33	2947	0.373	0
33	2953	0.374	0
33	2963	0.375	0
33	2969	0.376	0
33	2975	0.377	0
33	2983	0.378	0
33	2991	0.379	0
33	2997	0.38	0
33	3007	0.381	0
33	3013	0.382	0
33	3019	0.383	0
33	3027	0.384	0
33	3035	0.385	0
33	3041	0.386	0
33	3051	0.387	0
33	3057	0.388	0
33	3063	0.389	0
33	3071	0.39	0
33	3079	0.391	0
33	3085	0.392	0
33	3095	0.393	0
33	3101	0.394	0
33	3107	0.395	0
33	3115	0.396	0
33	3123	0.397	0
33	3129	0.398	0
33	3139	0.399	0
33	3147	0.4	0
33	3153	0.401	0
33	3161	0.402	0
33	3169	0.403	0
33	3175	0.404	0
33	3185	0.405	0
33	3191	0.406	0
33	3197	0.407	0
33	3205	0.408	0
33	3213	0.409	0
33	3219	0.41	0
33	3229	0.411	0
33	3235	0.412	0
33	3241	0.413	0
33	3249	0.414	0
33	3257	0.415	0
33	3263	0.416	0
33	3273	0.417	0
33	3279	0.418	0
33	3285	0.419	0
33	3293	0.42	0
33	3301	0.421	0
33	3307	0.422	0
33	3317	0.423	0
33	3323	0.424	0
33	3329	0.425	0
33	3337	0.426	0
33	3345	0.427	0
33	3351	0.428	0
33	3361	0.429	0
33	3367	0.43	0
33	3373	0.431	0
33	3381	0.432	0
33	3389	0.433	0
33	3395	0.434	0
33	3405	0.435	0
33	3411	0.436	0
33	3417	0.437	0
33	3425	0.438	0
33	3433	0.439	0
33	3439	0.44	0
33	3449	0.441	0
33	3455	0.442	0
33	3461	0.443	0
33	3469	0.444	0
33	3477	0.445	0
33	3483	0.446	0
33	3493	0.447	0
33	3499	0.448	0
33	3505	0.449	0
33	3513	0.45	0
33	3521	0.451	0
33	3527	0.452	0
33	3537	0.453	0
33	3543	0.454	0
33	3549	0.455	0
33	3557	0.456	0
33	3565	0.457	0
33	3571	0.458	0
33	3581	0.459	0
33	3587	0.46	0
33	3593	0.461	0
33	3601	0.462	0
33	3609	0.463	0
33	3615	0.464	0
33	3625	0.465	0
33	3631	0.466	0
33	3637	0.467	0
33	3645	0.468	0
33	3653	0.469	0
33	3659	0.47	0
33	3669	0.471	0
33	3675	0.472	0
33	3681	0.473	0
33	3689	0.474	0
33	3697	0.475	0
33	3703	0.476	0
33	3723	0.477	0
33	3730	0.478	0
33	3739	0.479	0
33	3750	0.48	0
33	3760	0.481	0
33	3768	0.482	0
33	3781	0.483	0
33	3790	0.484	0
33	3799	0.485	0
33	3811	0.486	0
33	3825	0.487	0
33	3839	0.488	0
33	3851	0.489	0
33	3857	0.49	0
33	3865	0.491	0
33	3892	0.492	0
33	3906	0.493	0
33	3915	0.494	0
33	3928	0.495	0
33	3936	0.496	0
33	3944	0.497	0
33	3955	0.498	0
33	3966	0.499	0
33	3977	0.5	0
33	3991	0.501	0
33	4003	0.502	0
33	4017	0.503	0
33	4027	0.504	0
33	4035	0.505	0
33	4043	0.506	0
33	4077	0.507	0
33	4089	0.508	0
33	4098	0.509	0
33	4109	0.51	0
33	4119	0.511	0
33	4127	0.512	0
33	4140	0.513	0
33	4149	0.514	0
33	4158	0.515	0
33	4170	0.516	0
33	4184	0.517	0
33	4198	0.518	0
33	4210	0.519	0
33	4216	0.52	0
33	4224	0.521	0
33	4238	0.522	0
33	4251	0.523	0
33	4258	0.524	0
33	4270	0.525	0
33	4278	0.526	0
33	4286	0.527	0
33	4294	0.528	0
33	4302	0.529	0
33	4334	0.53	0
33	4349	0.531	0
33	4358	0.532	0
33	4367	0.533	0
33	4377	0.534	0
33	4387	0.535	0
33	4396	0.536	0
33	4409	0.537	0
33	4418	0.538	0
33	4428	0.539	0
33	4442	0.54	0
33	4458	0.541	0
33	4466	0.542	0
33	4476	0.543	0
33	4484	0.544	0
33	4530	0.545	0
33	4544	0.546	0
33	4555	0.547	0
33	4564	0.548	0
33	4576	0.549	0
33	4584	0.55	0
33	4593	0.551	0
33	4604	0.552	0
33	4615	0.553	0
33	4625	0.554	0
33	4641	0.555	0
33	4655	0.556	0
33	4663	0.557	0
33	4671	0.558	0
33	4681	0.559	0
33	4739	0.56	0
33	4755	0.561	0
33	4764	0.562	0
33	4773	0.563	0
33	4783	0.564	0
33	4793	0.565	0
33	4802	0.566	0
33	4815	0.567	0
33	4824	0.568	0
33	4834	0.569	0
33	4848	0.57	0
33	4864	0.571	0
33	4872	0.572	0
33	4882	0.573	0
33	4890	0.574	0
33	4968	0.575	0
33	4982	0.576	0
33	4993	0.577	0
33	5002	0.578	0
33	5014	0.579	0
33	5022	0.58	0
33	5031	0.581	0
33	5042	0.582	0
33	5053	0.583	0
33	5063	0.584	0
33	5079	0.585	0
33	5093	0.586	0
33	5101	0.587	0
33	5109	0.588	0
33	5119	0.589	0
33	5131	0.59	0
33	5146	0.591	0
33	5153	0.592	0
33	5161	0.593	0
33	5171	0.594	0
33	5181	0.595	0
33	5187	0.596	0
33	5197	0.597	0
33	5295	0.598	0
33	5306	0.599	0
33	5319	0.6	0
33	5330	0.601	0
33	5338	0.602	0
33	5350	0.603	0
33	5359	0.604	0
33	5368	0.605	0
33	5379	0.606	0
33	5391	0.607	0
33	5403	0.608	0
33	5421	0.609	0
33	5429	0.61	0
33	5435	0.611	0
33	5445	0.612	0
33	5577	0.613	0
33	5589	0.614	0
33	5602	0.615	0
33	5611	0.616	0
33	5619	0.617	0
33	5629	0.618	0
33	5640	0.619	0
33	5649	0.62	0
33	5662	0.621	0
33	5672	0.622	0
33	5685	0.623	0
33	5703	0.624	0
33	5719	0.625	0
33	5727	0.626	0
33	5739	0.627	0
33	5886	0.628	0
33	5926	0.629	0
33	5942	0.63	0
33	5953	0.631	0
33	5961	0.632	0
33	5973	0.633	0
33	5982	0.634	0
33	5991	0.635	0
33	6002	0.636	0
33	6014	0.637	0
33	6026	0.638	0
33	6044	0.639	0
33	6052	0.64	0
33	6058	0.641	0
33	6068	0.642	0
33	6224	0.643	0
33	6236	0.644	0
33	6249	0.645	0
33	6258	0.646	0
33	6266	0.647	0
33	6276	0.648	0
33	6287	0.649	0
33	6296	0.65	0
33	6309	0.651	0
33	6319	0.652	0
33	6332	0.653	0
33	6350	0.654	0
33	6366	0.655	0
33	6374	0.656	0
33	6386	0.657	0
33	6533	0.658	0
33	6573	0.659	0
33	6589	0.66	0
33	6600	0.661	0
33	6608	0.662	0
33	6620	0.663	0
33	6629	0.664	0
33	6638	0.665	0
33	6649	0.666	0
33	6661	0.667	0
33	6673	0.668	0
33	6691	0.669	0
33	6699	0.67	0
33	6705	0.671	0
33	6715	0.672	0
33	6871	0.673	0
33	6883	0.674	0
33	6896	0.675	0
33	6905	0.676	0
33	6913	0.677	0
33	6923	0.678	0
33	6934	0.679	0
33	6943	0.68	0
33	6956	0.681	0
33	6966	0.682	0
33	6979	0.683	0
33	6997	0.684	0
33	7013	0.685	0
33	7021	0.686	0
33	7033	0.687	0
33	7046	0.688	0
33	7063	0.689	0
33	7078	0.69	0
33	7090	0.691	0
33	7097	0.692	0
33	7107	0.693	0
33	7271	0.694	0
33	7282	0.695	0
33	7293	0.696	0
33	7304	0.697	0
33	7312	0.698	0
33	7324	0.699	0
33	7335	0.7	0
33	7344	0.701	0
33	7355	0.702	0
33	7367	0.703	0
33	7379	0.704	0
33	7397	0.705	0
33	7405	0.706	0
33	7411	0.707	0
33	7421	0.708	0
33	7577	0.709	0
33	7589	0.71	0
33	7602	0.711	0
33	7611	0.712	0
33	7619	0.713	0
33	7629	0.714	0
33	7640	0.715	0
33	7649	0.716	0
33	7662	0.717	0
33	7672	0.718	0
33	7685	0.719	0
33	7703	0.72	0
33	7719	0.721	0
33	7727	0.722	0
33	7739	0.723	0
33	7886	0.724	0
33	7926	0.725	0
33	7942	0.726	0
33	7953	0.727	0
33	7961	0.728	0
33	7973	0.729	0
33	7982	0.73	0
33	7991	0.731	0
33	8002	0.732	0
33	8014	0.733	0
33	8026	0.734	0
33	8044	0.735	0
33	8052	0.736	0
33	8058	0.737	0
33	8068	0.738	0
33	8224	0.739	0
33	8236	0.74	0
33	8249	0.741	0
33	8258	0.742	0
33	8266	0.743	0
33	8276	0.744	0
33	8287	0.745	0
33	8296	0.746	0
33	8309	0.747	0
33	8319	0.748	0
33	8332	0.749	0
33	8350	0.75	0
33	8366	0.751	0
33	8374	0.752	0
33	8386	0.753	0
33	8399	0.754	0
33	8416	0.755	0
33	8431	0.756	0
33	8443	0.757	0
33	8450	0.758	0
33	8460	0.759	0
33	8624	0.76	0
33	8635	0.761	0
33	8646	0.762	0
33	8657	0.763	0
33	8665	0.764	0
33	8677	0.765	0
33	8686	0.766	0
33	8695	0.767	0
33	8706	0.768	0
33	8718	0.769	0
33	8730	0.77	0
33	8748	0.771	0
33	8756	0.772	0
33	8762	0.773	0
33	8772	0.774	0
33	8928	0.775	0
33	8940	0.776	0
33	8953	0.777	0
33	8962	0.778	0
33	8970	0.779	0
33	8980	0.78	0
33	8991	0.781	0
33	9000	0.782	0
33	9013	0.783	0
33	9023	0.784	0
33	9036	0.785	0
33	9054	0.786	0
33	9070	0.787	0
33	9078	0.788	0
33	9090	0.789	0
33	9237	0.79	0
33	9277	0.791	0
33	9293	0.792	0
33	9304	0.793	0
33	9312	0.794	0
33	9324	0.795	0
33	9333	0.796	0
33	9342	0.797	0
33	9353	0.798	0
33	9365	0.799	0
33	9379	0.8	0
33	9397	0.801	0
33	9405	0.802	0
33	9411	0.803	0
33	9421	0.804	0
33	9577	0.805	0
33	9589	0.806	0
33	9602	0.807	0
33	9611	0.808	0
33	9619	0.809	0
33	9629	0.81	0
33	9640	0.811	0
33	9649	0.812	0
33	9662	0.813	0
33	9672	0.814	0
33	9685	0.815	0
33	9703	0.816	0
33	9719	0.817	0
33	9727	0.818	0
33	9739	0.819	0
33	9752	0.82	0
33	9769	0.821	0
33	9784	0.822	0
33	9796	0.823	0
33	9803	0.824	0
33	9813	0.825	0
33	9977	0.826	0
33	9988	0.827	0
33	9999	0.828	0
33	10010	0.829	0
33	10018	0.83	0
33	10030	0.831	0
33	10039	0.832	0
33	10048	0.833	0
33	10059	0.834	0
33	10071	0.835	0
33	10083	0.836	0
33	10101	0.837	0
33	10109	0.838	0
33	10115	0.839	0
33	10125	0.84	0
33	10281	0.841	0
33	10293	0.842	0
33	10306	0.843	0
33	10315	0.844	0
33	10323	0.845	0
33	10333	0.846	0
33	10344	0.847	0
33	10353	0.848	0
33	10366	0.849	0
33	10376	0.85	0
33	10389	0.851	0
33	10407	0.852	0
33	10423	0.853	0
33	10431	0.854	0
33	10443	0.855	0
33	10456	0.856	0
33	10473	0.857	0
33	10488	0.858	0
33	10500	0.859	0
33	10507	0.86	0
33	10517	0.861	0
33	10681	0.862	0
33	10692	0.863	0
33	10703	0.864	0
33	10714	0.865	0
33	10722	0.866	0
33	10734	0.867	0
33	10743	0.868	0
33	10752	0.869	0
33	10763	0.87	0
33	10775	0.871	0
33	10787	0.872	0
33	10805	0.873	0
33	10813	0.874	0
33	10819	0.875	0
33	10829	0.876	0
33	10985	0.877	0
33	10997	0.878	0
33	11010	0.879	0
33	11019	0.88	0
33	11027	0.881	0
33	11037	0.882	0
33	11048	0.883	0
33	11057	0.884	0
33	11070	0.885	0
33	11080	0.886	0
33	11093	0.887	0
33	11111	0.888	0
33	11127	0.889	0
33	11135	0.89	0
33	11147	0.891	0
33	11160	0.892	0
33	11177	0.893	0
33	11192	0.894	0
33	11204	0.895	0
33	11211	0.896	0
33	11221	0.897	0
33	11385	0.898	0
33	11396	0.899	0
33	11409	0.9	0
33	11420	0.901	0
33	11428	0.902	0
33	11440	0.903	0
33	11449	0.904	0
33	11458	0.905	0
33	11469	0.906	0
33	11481	0.907	0
33	11493	0.908	0
33	11511	0.909	0
33	11519	0.91	0
33	11525	0.911	0
33	11535	0.912	0
33	11691	0.913	0
33	11703	0.914	0
33	11716	0.915	0
33	11725	0.916	0
33	11733	0.917	0
33	11743	0.918	0
33	11754	0.919	0
33	11763	0.92	0
33	11776	0.921	0
33	11786	0.922	0
33	11799	0.923	0
33	11817	0.924	0
33	11833	0.925	0
33	11841	0.926	0
33	11853	0.927	0
33	11866	0.928	0
33	11883	0.929	0
33	11898	0.93	0
33	11910	0.931	0
33	11917	0.932	0
33	11927	0.933	0
33	12091	0.934	0
33	12102	0.935	0
33	12113	0.936	0
33	12124	0.937	0
33	12132	0.938	0
33	12144	0.939	0
33	12153	0.94	0
33	12162	0.941	0
33	12173	0.942	0
33	12185	0.943	0
33	12197	0.944	0
33	12215	0.945	0
33	12223	0.946	0
33	12229	0.947	0
33	12239	0.948	0
33	12395	0.949	0
33	12407	0.95	0
33	12420	0.951	0
33	12429	0.952	0
33	12437	0.953	0
33	12447	0.954	0
33	12458	0.955	0
33	12467	0.956	0
33	12480	0.957	0
33	12490	0.958	0
33	12503	0.959	0
33	12521	0.96	0
33	12537	0.961	0
33	12545	0.962	0
33	12557	0.963	0
33	12570	0.964	0
33	12587	0.965	0
33	12602	0.966	0
33	12614	0.967	0
33	12621	0.968	0
33	12631	0.969	0
33	12795	0.97	0
33	12806	0.971	0
33	12817	0.972	0
33	12828	0.973	0
33	12836	0.974	0
33	12848	0.975	0
33	12857	0.976	0
33	12866	0.977	0
33	12877	0.978	0
33	12889	0.979	0
33	12901	0.98	0
33	12919	0.981	0
33	12927	0.982	0
33	12933	0.983	0
33	12943	0.984	0
33	13099	0.985	0
33	13111	0.986	0
33	13124	0.987	0
33	13133	0.988	0
33	13141	0.989	0
33	13151	0.99	0
33	13162	0.991	0
33	13171	0.992	0
33	13184	0.993	0
33	13194	0.994	0
33	13207	0.995	0
33	13225	0.996	0
33	13241	0.997	0
33	13249	0.998	0
33	13261	0.999	0
33	13276	1	0
33	13293	1.001	0
33	13308	1.002	0
33	13320	1.003	0
33	13327	1.004	0
33	13337	1.005	0
33	13501	1.006	0
33	13512	1.007	0
33	13523	1.008	0
33	13534	1.009	0
33	13542	1.01	0
33	13554	1.011	0
33	13563	1.012	0
33	13572	1.013	0
33	13583	1.014	0
33	13595	1.015	0
33	13607	1.016	0
33	13625	1.017	0
33	13633	1.018	0
33	13639	1.019	0
33	13649	1.02	0
33	13805	1.021	0
33	13817	1.022	0
33	13830	1.023	0
33	13839	1.024	0
33	13847	1.025	0
33	13857	1.026	0
33	13868	1.027	0
33	13877	1.028	0
33	13890	1.029	0
33	13900	1.03	0
33	13913	1.031	0
33	13931	1.032	0
33	13947	1.033	0
33	13955	1.034	0
33	13967	1.035	0
33	13980	1.036	0
33	13997	1.037	0
33	14012	1.038	0
33	14024	1.039	0
33	14031	1.04	0
33	14041	1.041	0
33	14205	1.042	0
33	14216	1.043	0
33	14227	1.044	0
33	14238	1.045	0
33	14246	1.046	0
33	14258	1.047	0
33	14267	1.048	0
33	14276	1.049	0
33	14288	1.05	0
33	14300	1.051	0
33	14312	1.052	0
33	14330	1.053	0
33	14338	1.054	0
33	14344	1.055	0
33	14354	1.056	0
33	14368	1.057	0
33	14379	1.058	0
33	14390	1.059	0
33	14398	1.06	0
33	14406	1.061	0
33	14416	1.062	0
33	14424	1.063	0
33	14430	1.064	0
33	14584	1.065	0
33	14595	1.066	0
33	14604	1.067	0
33	14615	1.068	0
33	14625	1.069	0
33	14633	1.07	0
33	14646	1.071	0
33	14655	1.072	0
33	14664	1.073	0
33	14676	1.074	0
33	14691	1.075	0
33	14707	1.076	0
33	14725	1.077	0
33	14733	1.078	0
33	14741	1.079	0
33	14756	1.08	0
33	14775	1.081	0
33	14788	1.082	0
33	14802	1.083	0
33	14809	1.084	0
33	14815	1.085	0
33	14981	1.086	0
33	14994	1.087	0
33	15003	1.088	0
33	15016	1.089	0
33	15024	1.09	0
33	15032	1.091	0
33	15043	1.092	0
33	15054	1.093	0
33	15063	1.094	0
33	15077	1.095	0
33	15089	1.096	0
33	15103	1.097	0
33	15113	1.098	0
33	15121	1.099	0
33	15131	1.1	0
33	15289	1.101	0
33	15301	1.102	0
33	15310	1.103	0
33	15321	1.104	0
33	15331	1.105	0
33	15339	1.106	0
33	15352	1.107	0
33	15361	1.108	0
33	15370	1.109	0
33	15382	1.11	0
33	15397	1.111	0
33	15413	1.112	0
33	15431	1.113	0
33	15439	1.114	0
33	15447	1.115	0
33	15596	1.116	0
33	15614	1.117	0
33	15628	1.118	0
33	15642	1.119	0
33	15652	1.12	0
33	15662	1.121	0
33	15675	1.122	0
33	15686	1.123	0
33	15695	1.124	0
33	15735	1.125	0
33	15751	1.126	0
33	15765	1.127	0
33	15775	1.128	0
33	15783	1.129	0
33	15791	1.13	0
33	15949	1.131	0
33	15961	1.132	0
33	15970	1.133	0
33	15981	1.134	0
33	15991	1.135	0
33	15999	1.136	0
33	16012	1.137	0
33	16021	1.138	0
33	16030	1.139	0
33	16042	1.14	0
33	16057	1.141	0
33	16073	1.142	0
33	16091	1.143	0
33	16099	1.144	0
[...]
133	29491	1.83	4294967295
134	4053	0.506	0
134	4497	0.544	0
134	4498	0.544	0
134	4909	0.574	0
134	4910	0.574	0
134	4911	0.574	0
134	4912	0.574	0
134	5476	0.612	0
134	5477	0.612	0
134	5478	0.612	0
134	5479	0.612	0
134	5480	0.612	0
134	5481	0.612	0
134	5482	0.612	0
134	5483	0.612	0
134	6117	0.642	0
134	6118	0.642	0
134	6119	0.642	0
134	6120	0.642	0
134	6121	0.642	0
134	6122	0.642	0
134	6123	0.642	0
134	6124	0.642	0
134	6125	0.642	0
134	6126	0.642	0
134	6127	0.642	0
134	6128	0.642	0
134	6129	0.642	0
134	6130	0.642	0
134	6764	0.672	0
134	6765	0.672	0
134	6766	0.672	0
134	6767	0.672	0
134	6768	0.672	0
134	6769	0.672	0
134	6770	0.672	0
134	6771	0.672	0
134	6772	0.672	0
134	6773	0.672	0
134	6774	0.672	0
134	6775	0.672	0
134	6776	0.672	0
134	6777	0.672	0
134	7470	0.708	0
134	7471	0.708	0
134	7472	0.708	0
134	7473	0.708	0
134	7474	0.708	0
134	7475	0.708	0
134	7476	0.708	0
134	7477	0.708	0
134	7478	0.708	0
134	7479	0.708	0
134	7480	0.708	0
134	7481	0.708	0
134	7482	0.708	0
134	7483	0.708	0
134	8117	0.738	0
134	8118	0.738	0
134	8119	0.738	0
134	8120	0.738	0
134	8121	0.738	0
134	8122	0.738	0
134	8123	0.738	0
134	8124	0.738	0
134	8125	0.738	0
134	8126	0.738	0
134	8127	0.738	0
134	8128	0.738	0
134	8129	0.738	0
134	8130	0.738	0
134	8821	0.774	0
134	8822	0.774	0
134	8823	0.774	0
134	8824	0.774	0
134	8825	0.774	0
134	8826	0.774	0
134	8827	0.774	0
134	8828	0.774	0
134	8829	0.774	0
134	8830	0.774	0
134	8831	0.774	0
134	8832	0.774	0
134	8833	0.774	0
134	8834	0.774	0
134	9470	0.804	0
134	9471	0.804	0
134	9472	0.804	0
134	9473	0.804	0
134	9474	0.804	0
134	9475	0.804	0
134	9476	0.804	0
134	9477	0.804	0
134	9478	0.804	0
134	9479	0.804	0
134	9480	0.804	0
134	9481	0.804	0
134	9482	0.804	0
134	9483	0.804	0
134	10174	0.84	0
134	10175	0.84	0
134	10176	0.84	0
134	10177	0.84	0
134	10178	0.84	0
134	10179	0.84	0
134	10180	0.84	0
134	10181	0.84	0
134	10182	0.84	0
134	10183	0.84	0
134	10184	0.84	0
134	10185	0.84	0
134	10186	0.84	0
134	10187	0.84	0
134	10878	0.876	0
134	10879	0.876	0
134	10880	0.876	0
134	10881	0.876	0
134	10882	0.876	0
134	10883	0.876	0
134	10884	0.876	0
134	10885	0.876	0
134	10886	0.876	0
134	10887	0.876	0
134	10888	0.876	0
134	10889	0.876	0
134	10890	0.876	0
134	10891	0.876	0
134	11584	0.912	0
134	11585	0.912	0
134	11586	0.912	0
134	11587	0.912	0
134	11588	0.912	0
134	11589	0.912	0
134	11590	0.912	0
134	11591	0.912	0
134	11592	0.912	0
134	11593	0.912	0
134	11594	0.912	0
134	11595	0.912	0
134	11596	0.912	0
134	11597	0.912	0
134	12288	0.948	0
134	12289	0.948	0
134	12290	0.948	0
134	12291	0.948	0
134	12292	0.948	0
134	12293	0.948	0
134	12294	0.948	0
134	12295	0.948	0
134	12296	0.948	0
134	12297	0.948	0
134	12298	0.948	0
134	12299	0.948	0
134	12300	0.948	0
134	12301	0.948	0
134	12992	0.984	0
134	12993	0.984	0
134	12994	0.984	0
134	12995	0.984	0
134	12996	0.984	0
134	12997	0.984	0
134	12998	0.984	0
134	12999	0.984	0
134	13000	0.984	0
134	13001	0.984	0
134	13002	0.984	0
134	13003	0.984	0
134	13004	0.984	0
134	13005	0.984	0
134	13698	1.02	0
134	13699	1.02	0
134	13700	1.02	0
134	13701	1.02	0
134	13702	1.02	0
134	13703	1.02	0
134	13704	1.02	0
134	13705	1.02	0
134	13706	1.02	0
134	13707	1.02	0
134	13708	1.02	0
134	13709	1.02	0
134	13710	1.02	0
134	13711	1.02	0
134	14479	1.064	0
134	14480	1.064	0
134	14481	1.064	0
134	14482	1.064	0
134	14483	1.064	0
134	14484	1.064	0
134	14485	1.064	0
134	14486	1.064	0
134	14487	1.064	0
134	14488	1.064	0
134	14489	1.064	0
134	14490	1.064	0
134	14491	1.064	0
134	14492	1.064	0
134	15180	1.1	0
134	15181	1.1	0
134	15182	1.1	0
134	15183	1.1	0
134	15184	1.1	0
134	15185	1.1	0
134	15186	1.1	0
134	15187	1.1	0
134	15188	1.1	0
134	15189	1.1	0
134	15190	1.1	0
134	15191	1.1	0
134	15192	1.1	0
134	15193	1.1	0
134	15840	1.13	0
134	15841	1.13	0
134	15842	1.13	0
134	15843	1.13	0
134	15844	1.13	0
134	15845	1.13	0
134	15846	1.13	0
134	15847	1.13	0
134	15848	1.13	0
134	15849	1.13	0
134	15850	1.13	0
134	15851	1.13	0
134	15852	1.13	0
134	15853	1.13	0
134	16544	1.166	0
134	16545	1.166	0
134	16546	1.166	0
134	16547	1.166	0
134	16548	1.166	0
134	16549	1.166	0
134	16550	1.166	0
134	16551	1.166	0
134	16552	1.166	0
134	16553	1.166	0
134	16554	1.166	0
134	16555	1.166	0
134	16556	1.166	0
134	16557	1.166	0
134	17250	1.202	0
134	17251	1.202	0
134	17252	1.202	0
134	17253	1.202	0
134	17254	1.202	0
134	17255	1.202	0
134	17256	1.202	0
134	17257	1.202	0
134	17258	1.202	0
134	17259	1.202	0
134	17260	1.202	0
134	17261	1.202	0
134	17262	1.202	0
134	17263	1.202	0
134	17954	1.238	0
134	17955	1.238	0
134	17956	1.238	0
134	17957	1.238	0
134	17958	1.238	0
134	17959	1.238	0
134	17960	1.238	0
134	17961	1.238	0
134	17962	1.238	0
134	17963	1.238	0
134	17964	1.238	0
134	17965	1.238	0
134	17966	1.238	0
134	17967	1.238	0
134	18658	1.274	0
134	18659	1.274	0
134	18660	1.274	0
134	18661	1.274	0
134	18662	1.274	0
134	18663	1.274	0
134	18664	1.274	0
134	18665	1.274	0
134	18666	1.274	0
134	18667	1.274	0
134	18668	1.274	0
134	18669	1.274	0
134	18670	1.274	0
134	18671	1.274	0
134	19364	1.31	0
134	19365	1.31	0
134	19366	1.31	0
134	19367	1.31	0
134	19368	1.31	0
134	19369	1.31	0
134	19370	1.31	0
134	19371	1.31	0
134	19372	1.31	0
134	19373	1.31	0
134	19374	1.31	0
134	19375	1.31	0
134	19376	1.31	0
134	19377	1.31	0
134	20081	1.346	0
134	20082	1.346	0
134	20083	1.346	0
134	20084	1.346	0
134	20085	1.346	0
134	20086	1.346	0
134	20087	1.346	0
134	20088	1.346	0
134	20089	1.346	0
134	20090	1.346	0
134	20091	1.346	0
134	20092	1.346	0
134	20093	1.346	0
134	20094	1.346	0
134	20785	1.382	0
134	20786	1.382	0
134	20787	1.382	0
134	20788	1.382	0
134	20789	1.382	0
134	20790	1.382	0
134	20791	1.382	0
134	20792	1.382	0
134	20793	1.382	0
134	20794	1.382	0
134	20795	1.382	0
134	20796	1.382	0
134	20797	1.382	0
134	20798	1.382	0
134	21491	1.418	0
134	21492	1.418	0
134	21493	1.418	0
134	21494	1.418	0
134	21495	1.418	0
134	21496	1.418	0
134	21497	1.418	0
134	21498	1.418	0
134	21499	1.418	0
134	21500	1.418	0
134	21501	1.418	0
134	21502	1.418	0
134	21503	1.418	0
134	21504	1.418	0
134	22208	1.454	0
134	22209	1.454	0
134	22210	1.454	0
134	22211	1.454	0
134	22212	1.454	0
134	22213	1.454	0
134	22214	1.454	0
134	22215	1.454	0
134	22216	1.454	0
134	22217	1.454	0
134	22218	1.454	0
134	22219	1.454	0
134	22220	1.454	0
134	22221	1.454	0
134	22912	1.49	0
134	22913	1.49	0
134	22914	1.49	0
134	22915	1.49	0
134	22916	1.49	0
134	22917	1.49	0
134	22918	1.49	0
134	22919	1.49	0
134	22920	1.49	0
134	22921	1.49	0
134	22922	1.49	0
134	22923	1.49	0
134	22924	1.49	0
134	22925	1.49	0
134	23631	1.526	0
134	23632	1.526	0
134	23633	1.526	0
134	23634	1.526	0
134	23635	1.526	0
134	23636	1.526	0
134	23637	1.526	0
134	23638	1.526	0
134	23639	1.526	0
134	23640	1.526	0
134	23641	1.526	0
134	23642	1.526	0
134	23643	1.526	0
134	23644	1.526	0
134	24348	1.562	0
134	24349	1.562	0
134	24350	1.562	0
134	24351	1.562	0
134	24352	1.562	0
134	24353	1.562	0
134	24354	1.562	0
134	24355	1.562	0
134	24356	1.562	0
134	24357	1.562	0
134	24358	1.562	0
134	24359	1.562	0
134	24360	1.562	0
134	24361	1.562	0
134	25052	1.598	0
134	25053	1.598	0
134	25054	1.598	0
134	25055	1.598	0
134	25056	1.598	0
134	25057	1.598	0
134	25058	1.598	0
134	25059	1.598	0
134	25060	1.598	0
134	25061	1.598	0
134	25062	1.598	0
134	25063	1.598	0
134	25064	1.598	0
134	25065	1.598	0
134	25849	1.642	0
134	25850	1.642	0
134	25851	1.642	0
134	25852	1.642	0
134	25853	1.642	0
134	25854	1.642	0
134	25855	1.642	0
134	25856	1.642	0
134	25857	1.642	0
134	25858	1.642	0
134	25859	1.642	0
134	25860	1.642	0
134	25861	1.642	0
134	25862	1.642	0
134	26561	1.678	0
134	26562	1.678	0
134	26563	1.678	0
134	26564	1.678	0
134	26565	1.678	0
134	26566	1.678	0
134	26567	1.678	0
134	26568	1.678	0
134	26569	1.678	0
134	26570	1.678	0
134	26571	1.678	0
134	26572	1.678	0
134	26573	1.678	0
134	26574	1.678	0
134	27267	1.714	0
134	27268	1.714	0
134	27269	1.714	0
134	27270	1.714	0
134	27271	1.714	0
134	27272	1.714	0
134	27273	1.714	0
134	27274	1.714	0
134	27275	1.714	0
134	27276	1.714	0
134	27277	1.714	0
134	27278	1.714	0
134	27279	1.714	0
134	27280	1.714	0
134	28047	1.758	0
134	28048	1.758	0
134	28049	1.758	0
134	28050	1.758	0
134	28051	1.758	0
134	28052	1.758	0
134	28053	1.758	0
134	28054	1.758	0
134	28055	1.758	0
134	28056	1.758	0
134	28057	1.758	0
134	28058	1.758	0
134	28059	1.758	0
134	28060	1.758	0
134	28759	1.794	0
134	28760	1.794	0
134	28761	1.794	0
134	28762	1.794	0
134	28763	1.794	0
134	28764	1.794	0
134	28765	1.794	0
134	28766	1.794	0
134	28767	1.794	0
134	28768	1.794	0
134	28769	1.794	0
134	28770	1.794	0
134	28771	1.794	0
134	28772	1.794	0
134	29478	1.83	0
134	29479	1.83	0
134	29480	1.83	0
134	29481	1.83	0
134	29482	1.83	0
134	29483	1.83	0
134	29484	1.83	0
134	29485	1.83	0
134	29486	1.83	0
134	29487	1.83	0
134	29488	1.83	0
134	29489	1.83	0
134	29490	1.83	0
134	29491	1.83	0
135	4348	0.53	0
135	5305	0.598	0
135	7281	0.694	0
135	8634	0.76	0
135	9987	0.826	0
135	10691	0.862	0
135	11395	0.898	0
135	12101	0.934	0
135	12805	0.97	0
135	13511	1.006	0
135	14215	1.042	0
135	14991	1.086	0
135	15750	1.125	0
135	16357	1.152	0
135	17061	1.188	0
135	17767	1.224	0
135	18471	1.26	0
135	19175	1.296	0
135	19864	1.332	0
135	19916	1.334	0
135	20598	1.368	0
135	21304	1.404	0
135	21991	1.44	0
135	22043	1.442	0
135	22725	1.476	0
135	23414	1.512	0
135	23466	1.514	0
135	24131	1.548	0
135	24183	1.55	0
135	24865	1.584	0
135	25554	1.62	0
135	25606	1.622	0
135	26346	1.664	0
135	26392	1.666	0
135	27082	1.7	0
135	27786	1.736	0
135	28542	1.78	0
135	28590	1.782	0
135	29261	1.816	0
135	29309	1.818	0
135	29995	1.852	0
136	14594	1.065	0
136	25960	1.643	0
136	28160	1.759	0
vector 137 SingleCell_Standalone_D2D.server.ppp[0].queue outgoingDataRate:vector ETV
attr interpolationmode linear
attr recordingmode vector
attr source throughput(packetPulled)
attr title "outgoing datarate"
attr unit bps
vector 138 SingleCell_Standalone_D2D.server.ppp[0].queue incomingDataRate:vector ETV
attr interpolationmode linear
attr recordingmode vector
attr source throughput(packetPushStarted)
attr title "incoming datarate"
attr unit bps
vector 139 SingleCell_Standalone_D2D.router.ppp[0].queue outgoingDataRate:vector ETV
attr interpolationmode linear
attr recordingmode vector
attr source throughput(packetPulled)
attr title "outgoing datarate"
attr unit bps
vector 140 SingleCell_Standalone_D2D.router.ppp[0].queue incomingDataRate:vector ETV
attr interpolationmode linear
attr recordingmode vector
attr source throughput(packetPushStarted)
attr title "incoming datarate"
attr unit bps
vector 141 SingleCell_Standalone_D2D.router.ppp[1].queue outgoingDataRate:vector ETV
attr interpolationmode linear
attr recordingmode vector
attr source throughput(packetPulled)
attr title "outgoing datarate"
attr unit bps
vector 142 SingleCell_Standalone_D2D.router.ppp[1].queue incomingDataRate:vector ETV
attr interpolationmode linear
attr recordingmode vector
attr source throughput(packetPushStarted)
attr title "incoming datarate"
attr unit bps
vector 143 SingleCell_Standalone_D2D.upf.ppp[0].queue outgoingDataRate:vector ETV
attr interpolationmode linear
attr recordingmode vector
attr source throughput(packetPulled)
attr title "outgoing datarate"
attr unit bps
vector 144 SingleCell_Standalone_D2D.upf.ppp[0].queue incomingDataRate:vector ETV
attr interpolationmode linear
attr recordingmode vector
attr source throughput(packetPushStarted)
attr title "incoming datarate"
attr unit bps
vector 145 SingleCell_Standalone_D2D.upf.pppIf.queue outgoingDataRate:vector ETV
attr interpolationmode linear
attr recordingmode vector
attr source throughput(packetPulled)
attr title "outgoing datarate"
attr unit bps
vector 146 SingleCell_Standalone_D2D.upf.pppIf.queue incomingDataRate:vector ETV
attr interpolationmode linear
attr recordingmode vector
attr source throughput(packetPushStarted)
attr title "incoming datarate"
attr unit bps
vector 147 SingleCell_Standalone_D2D.iUpf.ppp[0].queue outgoingDataRate:vector ETV
attr interpolationmode linear
attr recordingmode vector
attr source throughput(packetPulled)
attr title "outgoing datarate"
attr unit bps
vector 148 SingleCell_Standalone_D2D.iUpf.ppp[0].queue incomingDataRate:vector ETV
attr interpolationmode linear
attr recordingmode vector
attr source throughput(packetPushStarted)
attr title "incoming datarate"
attr unit bps
vector 149 SingleCell_Standalone_D2D.iUpf.ppp[1].queue outgoingDataRate:vector ETV
attr interpolationmode linear
attr recordingmode vector
attr source throughput(packetPulled)
attr title "outgoing datarate"
attr unit bps
vector 150 SingleCell_Standalone_D2D.iUpf.ppp[1].queue incomingDataRate:vector ETV
attr interpolationmode linear
attr recordingmode vector
attr source throughput(packetPushStarted)
attr title "incoming datarate"
attr unit bps
vector 151 SingleCell_Standalone_D2D.iUpf.pppIf.queue outgoingDataRate:vector ETV
attr interpolationmode linear
attr recordingmode vector
attr source throughput(packetPulled)
attr title "outgoing datarate"
attr unit bps
vector 152 SingleCell_Standalone_D2D.iUpf.pppIf.queue incomingDataRate:vector ETV
attr interpolationmode linear
attr recordingmode vector
attr source throughput(packetPushStarted)
attr title "incoming datarate"
attr unit bps
vector 153 SingleCell_Standalone_D2D.gnb.pppIf.queue outgoingDataRate:vector ETV
attr interpolationmode linear
attr recordingmode vector
attr source throughput(packetPulled)
attr title "outgoing datarate"
attr unit bps
vector 154 SingleCell_Standalone_D2D.gnb.pppIf.queue incomingDataRate:vector ETV
attr interpolationmode linear
attr recordingmode vector
attr source throughput(packetPushStarted)
attr title "incoming datarate"
attr unit bps
vector 155 SingleCell_Standalone_D2D.gnb.pppMEHostIf.queue outgoingDataRate:vector ETV
attr interpolationmode linear
attr recordingmode vector
attr source throughput(packetPulled)
attr title "outgoing datarate"
attr unit bps
vector 156 SingleCell_Standalone_D2D.gnb.pppMEHostIf.queue incomingDataRate:vector ETV
attr interpolationmode linear
attr recordingmode vector
attr source throughput(packetPushStarted)
attr title "incoming datarate"
attr unit bps
137	30167	0.1	0
137	30167	0.2	0
137	30167	0.3	0
137	30167	0.4	0
137	30167	0.5	0
137	30167	0.6	0
137	30167	0.7	0
137	30167	0.8	0
137	30167	0.9	0
137	30167	1	0
137	30167	1.1	0
137	30167	1.2	0
137	30167	1.3	0
137	30167	1.4	0
137	30167	1.5	0
137	30167	1.6	0
137	30167	1.7	0
137	30167	1.8	0
137	30167	1.868	0
138	30167	0.1	0
138	30167	0.2	0
138	30167	0.3	0
138	30167	0.4	0
138	30167	0.5	0
138	30167	0.6	0
138	30167	0.7	0
138	30167	0.8	0
138	30167	0.9	0
138	30167	1	0
138	30167	1.1	0
138	30167	1.2	0
138	30167	1.3	0
138	30167	1.4	0
138	30167	1.5	0
138	30167	1.6	0
138	30167	1.7	0
138	30167	1.8	0
138	30167	1.868	0
139	30167	0.1	0
139	30167	0.2	0
139	30167	0.3	0
139	30167	0.4	0
139	30167	0.5	0
139	30167	0.6	0
139	30167	0.7	0
139	30167	0.8	0
139	30167	0.9	0
139	30167	1	0
139	30167	1.1	0
139	30167	1.2	0
139	30167	1.3	0
139	30167	1.4	0
139	30167	1.5	0
139	30167	1.6	0
139	30167	1.7	0
139	30167	1.8	0
139	30167	1.868	0
140	30167	0.1	0
140	30167	0.2	0
140	30167	0.3	0
140	30167	0.4	0
140	30167	0.5	0
140	30167	0.6	0
140	30167	0.7	0
140	30167	0.8	0
140	30167	0.9	0
140	30167	1	0
140	30167	1.1	0
140	30167	1.2	0
140	30167	1.3	0
140	30167	1.4	0
140	30167	1.5	0
140	30167	1.6	0
140	30167	1.7	0
140	30167	1.8	0
140	30167	1.868	0
141	30167	0.1	0
141	30167	0.2	0
141	30167	0.3	0
141	30167	0.4	0
141	30167	0.5	0
141	30167	0.6	0
141	30167	0.7	0
141	30167	0.8	0
141	30167	0.9	0
141	30167	1	0
141	30167	1.1	0
141	30167	1.2	0
141	30167	1.3	0
141	30167	1.4	0
141	30167	1.5	0
141	30167	1.6	0
141	30167	1.7	0
141	30167	1.8	0
141	30167	1.868	0
142	30167	0.1	0
142	30167	0.2	0
142	30167	0.3	0
142	30167	0.4	0
142	30167	0.5	0
142	30167	0.6	0
142	30167	0.7	0
142	30167	0.8	0
142	30167	0.9	0
142	30167	1	0
142	30167	1.1	0
142	30167	1.2	0
142	30167	1.3	0
142	30167	1.4	0
142	30167	1.5	0
142	30167	1.6	0
142	30167	1.7	0
142	30167	1.8	0
142	30167	1.868	0
143	30167	0.1	0
143	30167	0.2	0
143	30167	0.3	0
143	30167	0.4	0
143	30167	0.5	0
143	30167	0.6	0
143	30167	0.7	0
143	30167	0.8	0
143	30167	0.9	0
143	30167	1	0
143	30167	1.1	0
143	30167	1.2	0
143	30167	1.3	0
143	30167	1.4	0
143	30167	1.5	0
143	30167	1.6	0
143	30167	1.7	0
143	30167	1.8	0
143	30167	1.868	0
144	30167	0.1	0
144	30167	0.2	0
144	30167	0.3	0
144	30167	0.4	0
144	30167	0.5	0
144	30167	0.6	0
144	30167	0.7	0
144	30167	0.8	0
144	30167	0.9	0
144	30167	1	0
144	30167	1.1	0
144	30167	1.2	0
144	30167	1.3	0
144	30167	1.4	0
144	30167	1.5	0
144	30167	1.6	0
144	30167	1.7	0
144	30167	1.8	0
144	30167	1.868	0
145	30167	0.1	0
145	30167	0.2	0
145	30167	0.3	0
145	30167	0.4	0
145	30167	0.5	0
145	30167	0.6	0
145	30167	0.7	0
145	30167	0.8	0
145	30167	0.9	0
145	30167	1	0
145	30167	1.1	0
145	30167	1.2	0
145	30167	1.3	0
145	30167	1.4	0
145	30167	1.5	0
145	30167	1.6	0
145	30167	1.7	0
145	30167	1.8	0
145	30167	1.868	0
146	30167	0.1	0
146	30167	0.2	0
146	30167	0.3	0
146	30167	0.4	0
146	30167	0.5	0
146	30167	0.6	0
146	30167	0.7	0
146	30167	0.8	0
146	30167	0.9	0
146	30167	1	0
146	30167	1.1	0
146	30167	1.2	0
146	30167	1.3	0
146	30167	1.4	0
146	30167	1.5	0
146	30167	1.6	0
146	30167	1.7	0
146	30167	1.8	0
146	30167	1.868	0
147	30167	0.1	0
147	30167	0.2	0
147	30167	0.3	0
147	30167	0.4	0
147	30167	0.5	0
147	30167	0.6	0
147	30167	0.7	0
147	30167	0.8	0
147	30167	0.9	0
147	30167	1	0
147	30167	1.1	0
147	30167	1.2	0
147	30167	1.3	0
147	30167	1.4	0
147	30167	1.5	0
147	30167	1.6	0
147	30167	1.7	0
147	30167	1.8	0
147	30167	1.868	0
148	30167	0.1	0
148	30167	0.2	0
148	30167	0.3	0
148	30167	0.4	0
148	30167	0.5	0
148	30167	0.6	0
148	30167	0.7	0
148	30167	0.8	0
148	30167	0.9	0
148	30167	1	0
148	30167	1.1	0
148	30167	1.2	0
148	30167	1.3	0
148	30167	1.4	0
148	30167	1.5	0
148	30167	1.6	0
148	30167	1.7	0
148	30167	1.8	0
148	30167	1.868	0
149	30167	0.1	0
149	30167	0.2	0
149	30167	0.3	0
149	30167	0.4	0
149	30167	0.5	0
149	30167	0.6	0
149	30167	0.7	0
149	30167	0.8	0
149	30167	0.9	0
149	30167	1	0
149	30167	1.1	0
149	30167	1.2	0
149	30167	1.3	0
149	30167	1.4	0
149	30167	1.5	0
149	30167	1.6	0
149	30167	1.7	0
149	30167	1.8	0
149	30167	1.868	0
150	30167	0.1	0
150	30167	0.2	0
150	30167	0.3	0
150	30167	0.4	0
150	30167	0.5	0
150	30167	0.6	0
150	30167	0.7	0
150	30167	0.8	0
150	30167	0.9	0
150	30167	1	0
150	30167	1.1	0
150	30167	1.2	0
150	30167	1.3	0
150	30167	1.4	0
150	30167	1.5	0
150	30167	1.6	0
150	30167	1.7	0
150	30167	1.8	0
150	30167	1.868	0
151	30167	0.1	0
151	30167	0.2	0
151	30167	0.3	0
151	30167	0.4	0
151	30167	0.5	0
151	30167	0.6	0
151	30167	0.7	0
151	30167	0.8	0
151	30167	0.9	0
151	30167	1	0
151	30167	1.1	0
151	30167	1.2	0
151	30167	1.3	0
151	30167	1.4	0
151	30167	1.5	0
151	30167	1.6	0
151	30167	1.7	0
151	30167	1.8	0
151	30167	1.868	0
152	30167	0.1	0
152	30167	0.2	0
152	30167	0.3	0
152	30167	0.4	0
152	30167	0.5	0
152	30167	0.6	0
152	30167	0.7	0
152	30167	0.8	0
152	30167	0.9	0
152	30167	1	0
152	30167	1.1	0
152	30167	1.2	0
152	30167	1.3	0
152	30167	1.4	0
152	30167	1.5	0
152	30167	1.6	0
152	30167	1.7	0
152	30167	1.8	0
152	30167	1.868	0
153	30167	0.1	0
153	30167	0.2	0
153	30167	0.3	0
153	30167	0.4	0
153	30167	0.5	0
153	30167	0.6	0
153	30167	0.7	0
153	30167	0.8	0
153	30167	0.9	0
153	30167	1	0
153	30167	1.1	0
153	30167	1.2	0
153	30167	1.3	0
153	30167	1.4	0
153	30167	1.5	0
153	30167	1.6	0
153	30167	1.7	0
153	30167	1.8	0
153	30167	1.868	0
154	30167	0.1	0
154	30167	0.2	0
154	30167	0.3	0
154	30167	0.4	0
154	30167	0.5	0
154	30167	0.6	0
154	30167	0.7	0
154	30167	0.8	0
154	30167	0.9	0
154	30167	1	0
154	30167	1.1	0
154	30167	1.2	0
154	30167	1.3	0
154	30167	1.4	0
154	30167	1.5	0
154	30167	1.6	0
154	30167	1.7	0
154	30167	1.8	0
154	30167	1.868	0
155	30167	0.1	0
155	30167	0.2	0
155	30167	0.3	0
155	30167	0.4	0
155	30167	0.5	0
155	30167	0.6	0
155	30167	0.7	0
155	30167	0.8	0
155	30167	0.9	0
155	30167	1	0
155	30167	1.1	0
155	30167	1.2	0
155	30167	1.3	0
155	30167	1.4	0
155	30167	1.5	0
155	30167	1.6	0
155	30167	1.7	0
155	30167	1.8	0
155	30167	1.868	0
156	30167	0.1	0
156	30167	0.2	0
156	30167	0.3	0
156	30167	0.4	0
156	30167	0.5	0
156	30167	0.6	0
156	30167	0.7	0
156	30167	0.8	0
156	30167	0.9	0
156	30167	1	0
156	30167	1.1	0
156	30167	1.2	0
156	30167	1.3	0
156	30167	1.4	0
156	30167	1.5	0
156	30167	1.6	0
156	30167	1.7	0
156	30167	1.8	0
156	30167	1.868	0

