version 3
run CANA-0-20230221-11:37:08-14076
attr configname CANA
attr datetime 20230221-11:37:08
attr datetimef 20230221-113708
attr experiment CANA
attr inifile omnetpp.ini
attr iterationvars ""
attr iterationvarsd ""
attr iterationvarsf ""
attr measurement ""
attr network CANANetwork
attr processid 14076
attr repetition 0
attr replication #0
attr resultdir results
attr runnumber 0
attr seedset 0
config image-path ../../../images:../../../../inet4.4/images:../../../../veins-veins-5.2/subprojects/veins_inet/images:../../../../veins-veins-5.2/images
config network CANANetwork
config *.nbst 4
config *.numdrones 10
config **.dst*.mobility.typename StatNodeMob
config **.dst[0].mobility.initialX 200m
config **.dst[0].mobility.initialY 100m
config **.dst[0].mobility.initialZ 0m
config **.dst[1].mobility.initialX 100m
config **.dst[1].mobility.initialY 250m
config **.dst[1].mobility.initialZ 0m
config **.dst[2].mobility.initialX 160m
config **.dst[2].mobility.initialY 220m
config **.dst[2].mobility.initialZ 0m
config **.dst[3].mobility.initialX 200m
config **.dst[3].mobility.initialY 330m
config **.dst[3].mobility.initialZ 0m
config **.dst[4].mobility.initialX 400m
config **.dst[4].mobility.initialY 300m
config **.dst[4].mobility.initialZ 0m
config **.dst[5].mobility.initialX 400m
config **.dst[5].mobility.initialY 200m
config **.dst[5].mobility.initialZ 0m
config **.dst[*].mobility.initFromDisplayString false
config **.bstion*.mobility.typename StatNodeMob
config **.bstion[0].mobility.initialX 200m
config **.bstion[0].mobility.initialY 20m
config **.bstion[0].mobility.initialZ 0m
config **.bstion[1].mobility.initialX 20m
config **.bstion[1].mobility.initialY 200m
config **.bstion[1].mobility.initialZ 0m
config **.bstion[2].mobility.initialX 480m
config **.bstion[2].mobility.initialY 190m
config **.bstion[2].mobility.initialZ 0m
config **.bstion[3].mobility.initialX 200m
config **.bstion[3].mobility.initialY 380m
config **.bstion[3].mobility.initialZ 0m
config **.bstion[*].mobility.initFromDisplayString false
config **.drone*.mobility.typename DroneNetMob2
config **.drone*.mobility.ndst 30
config **.drone*.mobility.initFromDisplayString false
config **.drone*.mobility.changeInterval "truncnormal(2s, 0.5s)"
config *.drone[*].mobility.angleDelta "normal(0deg, 30deg)"
config **.drone*.mobility.speed 5mps
config **.drone[*].mobility.initFromDisplayString false
config image-path ../../../images
config output-scalar-file-append false
config **.routingRecorder.enabled false
config output-scalar-file results/CANA/0.sca
config output-vector-file results/CANA/0.vec
config seed-set 0
config **.vector-recording false
config sim-time-limit 10day
config **.constraintAreaMinX 0m
config **.constraintAreaMinY 0m
config **.constraintAreaMinZ 0m
config **.constraintAreaMaxX 500m
config **.constraintAreaMaxY 500m
config **.constraintAreaMaxZ 100m
config **.updateInterval 0.1s
config **.mobility.constraintAreaMaxX 1000m
config **.mobility.constraintAreaMaxY 1000m
config **.mobility.constraintAreaMinX 0m
config **.mobility.constraintAreaMinY 0m
config **.mobility.constraintAreaMinZ 0m
config **.mobility.constraintAreaMaxZ 0m
config **.mobility.initFromDisplayString false
config debug-on-errors false
config print-undisposed false
config **.sctp.**.scalar-recording false
config **.sctp.**.vector-recording false
config **.routingRecorder.enabled false
config *.playgroundSizeX 20000m
config *.playgroundSizeY 20000m
config *.playgroundSizeZ 50m

par CANANetwork.drone[0].radioIn[0].channel typename "\"ned.IdealChannel\""
par CANANetwork.drone[0].mobility typename "\"simu5g.nodes.drones.DroneNetMob2\""
par CANANetwork.drone[0].mobility subjectModule "\"^\""
par CANANetwork.drone[0].mobility coordinateSystemModule "\"\""
par CANANetwork.drone[0].mobility displayStringTextFormat "\"p: %p\\nv: %v\""
attr mutable ""
par CANANetwork.drone[0].mobility updateDisplayString true
par CANANetwork.drone[0].mobility constraintAreaMinX 0m
attr unit m
par CANANetwork.drone[0].mobility constraintAreaMinY 0m
attr unit m
par CANANetwork.drone[0].mobility constraintAreaMinZ 0m
attr unit m
par CANANetwork.drone[0].mobility constraintAreaMaxX 500m
attr unit m
par CANANetwork.drone[0].mobility constraintAreaMaxY 500m
attr unit m
par CANANetwork.drone[0].mobility constraintAreaMaxZ 100m
attr unit m
par CANANetwork.drone[0].mobility updateInterval 0.1s
attr unit s
par CANANetwork.drone[0].mobility faceForward true
par CANANetwork.drone[0].mobility ndst 30
par CANANetwork.drone[0].mobility nd 0
par CANANetwork.drone[0].mobility weightCapacity 20
par CANANetwork.drone[0].mobility remainingBattery 100
par CANANetwork.drone[0].mobility parcelSelecitionMethod 2
par CANANetwork.drone[0].mobility initialX 274.407m
attr unit m
par CANANetwork.drone[0].mobility initialY 296.422m
attr unit m
par CANANetwork.drone[0].mobility initialZ 71.5189m
attr unit m
par CANANetwork.drone[0].mobility initialMovementHeading 303.936deg
attr unit deg
par CANANetwork.drone[0].mobility initialMovementElevation 0deg
attr unit deg
par CANANetwork.drone[0].mobility initFromDisplayString false
par CANANetwork.drone[0].mobility changeInterval "truncnormal(2s, 0.5s)"
attr unit s
par CANANetwork.drone[0].mobility angleDelta "normal(0deg, 30deg)"
attr unit deg
par CANANetwork.drone[0].mobility rotationAxisAngle 0deg
attr unit deg
par CANANetwork.drone[0].mobility speed 5mps
attr unit mps
par CANANetwork.drone[0].interfaceTable typename "\"inet.networklayer.common.InterfaceTable\""
par CANANetwork.drone[0].interfaceTable displayAddresses false
par CANANetwork.drone[0].cb typename "\"inet.common.MessageDispatcher\""
par CANANetwork.drone[0].cb displayStringTextFormat "\"processed %p pk (%l)\""
par CANANetwork.drone[0].cb forwardServiceRegistration true
par CANANetwork.drone[0].cb forwardProtocolRegistration true
par CANANetwork.drone[0].bl typename "\"inet.common.MessageDispatcher\""
par CANANetwork.drone[0].bl displayStringTextFormat "\"processed %p pk (%l)\""
par CANANetwork.drone[0].bl forwardServiceRegistration true
par CANANetwork.drone[0].bl forwardProtocolRegistration true
par CANANetwork.drone[0].li typename "\"inet.common.MessageDispatcher\""
par CANANetwork.drone[0].li displayStringTextFormat "\"processed %p pk (%l)\""
par CANANetwork.drone[0].li forwardServiceRegistration true
par CANANetwork.drone[0].li forwardProtocolRegistration true
par CANANetwork.drone[0].lo[0].upperLayerIn.channel typename "\"ned.IdealChannel\""
par CANANetwork.drone[0].lo[0].lo.upperLayerOut.channel typename "\"ned.IdealChannel\""
par CANANetwork.drone[0].lo[0].lo typename "\"inet.linklayer.loopback.Loopback\""
par CANANetwork.drone[0].lo[0].lo interfaceTableModule "\"CANANetwork.drone[0].interfaceTable\""
par CANANetwork.drone[0].lo[0].lo mtu 4470B
attr unit B
scalar CANANetwork.drone[0].lo[0].lo rcvdPkFromHl:count 0
attr interpolationmode none
attr recordingmode count
attr source packetReceivedFromUpper
attr title "packets received from higher layer, count"
scalar CANANetwork.drone[0].lo[0].lo rcvdPkFromHl:sum(packetBytes) 0
attr interpolationmode none
attr recordingmode sum(packetBytes)
attr source packetReceivedFromUpper
attr title "packets received from higher layer, sum(packetBytes)"
scalar CANANetwork.drone[0].lo[0].lo passedUpPk:count 0
attr interpolationmode none
attr recordingmode count
attr source packetSentToUpper
attr title "packets passed to higher layer, count"
scalar CANANetwork.drone[0].lo[0].lo passedUpPk:sum(packetBytes) 0
attr interpolationmode none
attr recordingmode sum(packetBytes)
attr source packetSentToUpper
attr title "packets passed to higher layer, sum(packetBytes)"
par CANANetwork.drone[0].lo[0] typename "\"inet.linklayer.loopback.LoopbackInterface\""
par CANANetwork.drone[0].lo[0] displayStringTextFormat "\"%a (%i)\\n%m\""
par CANANetwork.drone[0].lo[0] recordPcap false
par CANANetwork.drone[0].lo[0] numPcapRecorders 0
par CANANetwork.drone[0].lo[0] interfaceTableModule "\"CANANetwork.drone[0].interfaceTable\""
scalar CANANetwork.drone[0].lo[0] packetDropInterfaceDown:count 0
attr interpolationmode none
attr recordingmode count
attr source packetDropReasonIsInterfaceDown(packetDropped)
attr title "packet drops: interface down, count"
scalar CANANetwork.drone[0].lo[0] packetDropInterfaceDown:sum(packetBytes) 0
attr interpolationmode none
attr recordingmode sum(packetBytes)
attr source packetDropReasonIsInterfaceDown(packetDropped)
attr title "packet drops: interface down, sum(packetBytes)"
scalar CANANetwork.drone[0].lo[0] packetDropNoCarrier:count 0
attr interpolationmode none
attr recordingmode count
attr source packetDropReasonIsNoCarrier(packetDropped)
attr title "packet drops: no carrier, count"
scalar CANANetwork.drone[0].lo[0] packetDropNoCarrier:sum(packetBytes) 0
attr interpolationmode none
attr recordingmode sum(packetBytes)
attr source packetDropReasonIsNoCarrier(packetDropped)
attr title "packet drops: no carrier, sum(packetBytes)"
par CANANetwork.drone[0].wlan[0].radioIn.channel typename "\"ned.IdealChannel\""
par CANANetwork.drone[0].wlan[0].llc.upperLayerOut.channel typename "\"ned.IdealChannel\""
par CANANetwork.drone[0].wlan[0].upperLayerIn.channel typename "\"ned.IdealChannel\""
par CANANetwork.drone[0].wlan[0].mib typename "\"inet.linklayer.ieee80211.mib.Ieee80211Mib\""
par CANANetwork.drone[0].wlan[0].llc typename "\"inet.linklayer.ieee80211.llc.Ieee80211LlcLpd\""
par CANANetwork.drone[0].wlan[0].llc registerProtocol false
par CANANetwork.drone[0].wlan[0].mgmt typename "\"inet.linklayer.ieee80211.mgmt.Ieee80211MgmtAdhoc\""
par CANANetwork.drone[0].wlan[0].mgmt mibModule "\"CANANetwork.drone[0].wlan[0].mib\""
par CANANetwork.drone[0].wlan[0].mgmt macModule "\"CANANetwork.drone[0].wlan[0].mac\""
par CANANetwork.drone[0].wlan[0].mgmt interfaceTableModule "\"CANANetwork.drone[0].interfaceTable\""
par CANANetwork.drone[0].wlan[0].mac.dcf.channelAccess.pendingQueue typename "\"inet.linklayer.ieee80211.mac.queue.PendingQueue\""
par CANANetwork.drone[0].wlan[0].mac.dcf.channelAccess.pendingQueue displayStringTextFormat "\"contains %p pk (%l) pushed %u\\npulled %o removed %r dropped %d\""
par CANANetwork.drone[0].wlan[0].mac.dcf.channelAccess.pendingQueue packetCapacity 100
par CANANetwork.drone[0].wlan[0].mac.dcf.channelAccess.pendingQueue dataCapacity -1b
attr unit b
par CANANetwork.drone[0].wlan[0].mac.dcf.channelAccess.pendingQueue dropperClass "\"inet::queueing::PacketAtCollectionEndDropper\""
par CANANetwork.drone[0].wlan[0].mac.dcf.channelAccess.pendingQueue comparatorClass "\"inet::ieee80211::MgmtOverDataComparator\""
par CANANetwork.drone[0].wlan[0].mac.dcf.channelAccess.pendingQueue bufferModule "\"\""
scalar CANANetwork.drone[0].wlan[0].mac.dcf.channelAccess.pendingQueue queueLength:last nan
attr autoWarmupFilter false
attr interpolationmode sample-hold
attr recordingmode last
attr source "warmup(atomic(constant0(packetPushEnded) + count(packetPushStarted) - count(packetPulled) - count(packetRemoved) - count(packetDropped)))"
attr title "queue length, last"
attr unit pk
scalar CANANetwork.drone[0].wlan[0].mac.dcf.channelAccess.pendingQueue queueLength:max nan
attr autoWarmupFilter false
attr interpolationmode sample-hold
attr recordingmode max
attr source "warmup(atomic(constant0(packetPushEnded) + count(packetPushStarted) - count(packetPulled) - count(packetRemoved) - count(packetDropped)))"
attr title "queue length, max"
attr unit pk
scalar CANANetwork.drone[0].wlan[0].mac.dcf.channelAccess.pendingQueue queueLength:timeavg -nan
attr autoWarmupFilter false
attr interpolationmode sample-hold
attr recordingmode timeavg
attr source "warmup(atomic(constant0(packetPushEnded) + count(packetPushStarted) - count(packetPulled) - count(packetRemoved) - count(packetDropped)))"
attr title "queue length, timeavg"
attr unit pk
scalar CANANetwork.drone[0].wlan[0].mac.dcf.channelAccess.pendingQueue queueBitLength:last nan
attr autoWarmupFilter false
attr interpolationmode sample-hold
attr recordingmode last
attr source "warmup(atomic(constant0(packetPushEnded) + sum(packetLength(packetPushStarted)) - sum(packetLength(packetPulled)) - sum(packetLength(packetRemoved)) - sum(packetLength(packetDropped))))"
attr title "queue bit length, last"
attr unit b
scalar CANANetwork.drone[0].wlan[0].mac.dcf.channelAccess.pendingQueue queueBitLength:max nan
attr autoWarmupFilter false
attr interpolationmode sample-hold
attr recordingmode max
attr source "warmup(atomic(constant0(packetPushEnded) + sum(packetLength(packetPushStarted)) - sum(packetLength(packetPulled)) - sum(packetLength(packetRemoved)) - sum(packetLength(packetDropped))))"
attr title "queue bit length, max"
attr unit b
scalar CANANetwork.drone[0].wlan[0].mac.dcf.channelAccess.pendingQueue queueBitLength:timeavg -nan
attr autoWarmupFilter false
attr interpolationmode sample-hold
attr recordingmode timeavg
attr source "warmup(atomic(constant0(packetPushEnded) + sum(packetLength(packetPushStarted)) - sum(packetLength(packetPulled)) - sum(packetLength(packetRemoved)) - sum(packetLength(packetDropped))))"
attr title "queue bit length, timeavg"
attr unit b
statistic CANANetwork.drone[0].wlan[0].mac.dcf.channelAccess.pendingQueue queueingTime:histogram
field count 0
field mean -nan
field stddev nan
field min nan
field max nan
field sum 0
field sqrsum 0
attr interpolationmode none
attr recordingmode histogram
attr source queueingTime(packetPulled)
attr title "queueing times"
attr unit s
bin	-inf	0
bin	0	0
bin	1	0
scalar CANANetwork.drone[0].wlan[0].mac.dcf.channelAccess.pendingQueue outgoingPackets:count 0
attr recordingmode count
attr source packetPulled
attr title "outgoing packets, count"
attr unit pk
scalar CANANetwork.drone[0].wlan[0].mac.dcf.channelAccess.pendingQueue outgoingPacketLengths:sum 0
attr interpolationmode none
attr recordingmode sum
attr source packetLength(packetPulled)
attr title "outgoing packet lengths, sum"
attr unit b
statistic CANANetwork.drone[0].wlan[0].mac.dcf.channelAccess.pendingQueue outgoingPacketLengths:histogram
field count 0
field mean -nan
field stddev nan
field min nan
field max nan
field sum 0
field sqrsum 0
attr interpolationmode none
attr recordingmode histogram
attr source packetLength(packetPulled)
attr title "outgoing packet lengths"
attr unit b
bin	-inf	0
bin	0	0
bin	1	0
statistic CANANetwork.drone[0].wlan[0].mac.dcf.channelAccess.pendingQueue flowQueueingTime:histogram
field count 0
field mean -nan
field stddev nan
field min nan
field max nan
field sum 0
field sqrsum 0
attr interpolationmode none
attr recordingmode histogram
attr source queueingTime(demuxFlow(packetPulled))
attr title "flow queueing times"
attr unit s
bin	-inf	0
bin	0	0
bin	1	0
scalar CANANetwork.drone[0].wlan[0].mac.dcf.channelAccess.pendingQueue incomingPackets:count 0
attr recordingmode count
attr source packetPushStarted
attr title "incoming packets, count"
attr unit pk
scalar CANANetwork.drone[0].wlan[0].mac.dcf.channelAccess.pendingQueue incomingPacketLengths:sum 0
attr interpolationmode none
attr recordingmode sum
attr source packetLength(packetPushStarted)
attr title "incoming packet lengths, sum"
attr unit b
statistic CANANetwork.drone[0].wlan[0].mac.dcf.channelAccess.pendingQueue incomingPacketLengths:histogram
field count 0
field mean -nan
field stddev nan
field min nan
field max nan
field sum 0
field sqrsum 0
attr interpolationmode none
attr recordingmode histogram
attr source packetLength(packetPushStarted)
attr title "incoming packet lengths"
attr unit b
bin	-inf	0
bin	0	0
bin	1	0
scalar CANANetwork.drone[0].wlan[0].mac.dcf.channelAccess.pendingQueue droppedPacketsQueueOverflow:count 0
attr interpolationmode none
attr recordingmode count
attr source packetDropReasonIsQueueOverflow(packetDropped)
attr title "dropped packets: queue overflow, count"
attr unit pk
scalar CANANetwork.drone[0].wlan[0].mac.dcf.channelAccess.pendingQueue droppedPacketLengthsQueueOverflow:sum 0
attr interpolationmode none
attr recordingmode sum
attr source packetLength(packetDropReasonIsQueueOverflow(packetDropped))
attr title "dropped packet lengths: queue overflow, sum"
attr unit b
par CANANetwork.drone[0].wlan[0].mac.dcf.channelAccess.inProgressFrames typename "\"inet.linklayer.ieee80211.mac.queue.InProgressFrames\""
par CANANetwork.drone[0].wlan[0].mac.dcf.channelAccess.inProgressFrames pendingQueueModule "\"^.pendingQueue\""
par CANANetwork.drone[0].wlan[0].mac.dcf.channelAccess.inProgressFrames originatorMacDataServiceModule "\"^.^.originatorMacDataService\""
par CANANetwork.drone[0].wlan[0].mac.dcf.channelAccess.inProgressFrames ackHandlerModule "\"^.^.ackHandler\""
statistic CANANetwork.drone[0].wlan[0].mac.dcf.channelAccess.inProgressFrames queueingTime:histogram
field count 0
field mean -nan
field stddev nan
field min nan
field max nan
field sum 0
field sqrsum 0
attr interpolationmode none
attr recordingmode histogram
attr source queueingTime(packetDequeued)
attr title "queueing times"
bin	-inf	0
bin	0	0
bin	1	0
scalar CANANetwork.drone[0].wlan[0].mac.dcf.channelAccess.inProgressFrames queueLength:max 0
attr autoWarmupFilter false
attr interpolationmode sample-hold
attr recordingmode max
attr source "warmup(count(packetEnqueued) - count(packetDequeued))"
attr title "queue length, max"
scalar CANANetwork.drone[0].wlan[0].mac.dcf.channelAccess.inProgressFrames queueLength:timeavg 0
attr autoWarmupFilter false
attr interpolationmode sample-hold
attr recordingmode timeavg
attr source "warmup(count(packetEnqueued) - count(packetDequeued))"
attr title "queue length, timeavg"
par CANANetwork.drone[0].wlan[0].mac.dcf.channelAccess.contention typename "\"inet.linklayer.ieee80211.mac.contention.Contention\""
par CANANetwork.drone[0].wlan[0].mac.dcf.channelAccess.contention initialChannelBusy true
par CANANetwork.drone[0].wlan[0].mac.dcf.channelAccess.contention backoffOptimization true
scalar CANANetwork.drone[0].wlan[0].mac.dcf.channelAccess.contention channelAccessGranted:count 0
attr recordingmode count
attr title "channel access granted, count"
scalar CANANetwork.drone[0].wlan[0].mac.dcf.channelAccess.contention stateChanged:count 2
attr enum IDLE,DEFER,IFS_AND_BACKOFF
attr interpolationmode none
attr recordingmode count
attr title "contention state changed, count"
attr type enum
par CANANetwork.drone[0].wlan[0].mac.dcf.channelAccess typename "\"inet.linklayer.ieee80211.mac.channelaccess.Dcaf\""
par CANANetwork.drone[0].wlan[0].mac.dcf.channelAccess difsn -1
par CANANetwork.drone[0].wlan[0].mac.dcf.channelAccess cwMin -1
par CANANetwork.drone[0].wlan[0].mac.dcf.channelAccess cwMax -1
par CANANetwork.drone[0].wlan[0].mac.dcf.channelAccess rxModule "\"^.^.rx\""
scalar CANANetwork.drone[0].wlan[0].mac.dcf.channelAccess channelOwnershipChanged:count 0
attr interpolationmode sample-hold
attr recordingmode count
attr title "channel ownership, count"
par CANANetwork.drone[0].wlan[0].mac.dcf.originatorMacDataService.fragmentationPolicy typename "\"inet.linklayer.ieee80211.mac.fragmentation.BasicFragmentationPolicy\""
par CANANetwork.drone[0].wlan[0].mac.dcf.originatorMacDataService.fragmentationPolicy fragmentationThreshold 1500B
attr unit B
par CANANetwork.drone[0].wlan[0].mac.dcf.originatorMacDataService typename "\"inet.linklayer.ieee80211.mac.originator.OriginatorMacDataService\""
scalar CANANetwork.drone[0].wlan[0].mac.dcf.originatorMacDataService packetAggregated:count 0
attr recordingmode count
attr title "packets aggregated, count"
scalar CANANetwork.drone[0].wlan[0].mac.dcf.originatorMacDataService packetFragmented:count 0
attr recordingmode count
attr title "packets fragmented, count"
par CANANetwork.drone[0].wlan[0].mac.dcf.recipientMacDataService typename "\"inet.linklayer.ieee80211.mac.recipient.RecipientMacDataService\""
scalar CANANetwork.drone[0].wlan[0].mac.dcf.recipientMacDataService packetDeaggregated:count 0
attr recordingmode count
attr title "packets deaggregated, count"
scalar CANANetwork.drone[0].wlan[0].mac.dcf.recipientMacDataService packetDefragmented:count 0
attr recordingmode count
attr title "packets defragmented, count"
scalar CANANetwork.drone[0].wlan[0].mac.dcf.recipientMacDataService packetDropDuplicateDetected:count 0
attr interpolationmode none
attr recordingmode count
attr source packetDropReasonIsDuplicateDetected(packetDropped)
attr title "packet drops: duplicate detected, count"
scalar CANANetwork.drone[0].wlan[0].mac.dcf.recipientMacDataService packetDropDuplicateDetected:sum(packetBytes) 0
attr interpolationmode none
attr recordingmode sum(packetBytes)
attr source packetDropReasonIsDuplicateDetected(packetDropped)
attr title "packet drops: duplicate detected, sum(packetBytes)"
par CANANetwork.drone[0].wlan[0].mac.dcf.rateSelection typename "\"inet.linklayer.ieee80211.mac.rateselection.RateSelection\""
par CANANetwork.drone[0].wlan[0].mac.dcf.rateSelection rateControlModule "\"^.rateControl\""
par CANANetwork.drone[0].wlan[0].mac.dcf.rateSelection multicastFrameBitrate -1bps
attr unit bps
par CANANetwork.drone[0].wlan[0].mac.dcf.rateSelection responseAckFrameBitrate -1bps
attr unit bps
par CANANetwork.drone[0].wlan[0].mac.dcf.rateSelection responseCtsFrameBitrate -1bps
attr unit bps
par CANANetwork.drone[0].wlan[0].mac.dcf.rateSelection dataFrameBitrate -1bps
attr unit bps
par CANANetwork.drone[0].wlan[0].mac.dcf.rateSelection dataFrameBandwidth "nan Hz"
attr unit Hz
par CANANetwork.drone[0].wlan[0].mac.dcf.rateSelection dataFrameNumSpatialStreams -1
par CANANetwork.drone[0].wlan[0].mac.dcf.rateSelection mgmtFrameBitrate -1bps
attr unit bps
par CANANetwork.drone[0].wlan[0].mac.dcf.rateSelection controlFrameBitrate -1bps
attr unit bps
par CANANetwork.drone[0].wlan[0].mac.dcf.recoveryProcedure typename "\"inet.linklayer.ieee80211.mac.originator.NonQosRecoveryProcedure\""
par CANANetwork.drone[0].wlan[0].mac.dcf.recoveryProcedure cwCalculatorModule "\"^.channelAccess\""
par CANANetwork.drone[0].wlan[0].mac.dcf.recoveryProcedure rtsPolicyModule "\"^.rtsPolicy\""
par CANANetwork.drone[0].wlan[0].mac.dcf.recoveryProcedure shortRetryLimit 7
par CANANetwork.drone[0].wlan[0].mac.dcf.recoveryProcedure longRetryLimit 4
scalar CANANetwork.drone[0].wlan[0].mac.dcf.recoveryProcedure retryLimitReached:count 0
attr recordingmode count
attr title "retry limit reached, count"
par CANANetwork.drone[0].wlan[0].mac.dcf.originatorProtectionMechanism typename "\"inet.linklayer.ieee80211.mac.protectionmechanism.OriginatorProtectionMechanism\""
par CANANetwork.drone[0].wlan[0].mac.dcf.originatorProtectionMechanism rateSelectionModule "\"^.rateSelection\""
par CANANetwork.drone[0].wlan[0].mac.dcf.ackHandler typename "\"inet.linklayer.ieee80211.mac.originator.AckHandler\""
par CANANetwork.drone[0].wlan[0].mac.dcf.originatorAckPolicy typename "\"inet.linklayer.ieee80211.mac.originator.OriginatorAckPolicy\""
par CANANetwork.drone[0].wlan[0].mac.dcf.originatorAckPolicy rateSelectionModule "\"^.rateSelection\""
par CANANetwork.drone[0].wlan[0].mac.dcf.originatorAckPolicy ackTimeout -1s
attr unit s
par CANANetwork.drone[0].wlan[0].mac.dcf.recipientAckPolicy typename "\"inet.linklayer.ieee80211.mac.recipient.RecipientAckPolicy\""
par CANANetwork.drone[0].wlan[0].mac.dcf.recipientAckPolicy rateSelectionModule "\"^.rateSelection\""
par CANANetwork.drone[0].wlan[0].mac.dcf.rtsPolicy typename "\"inet.linklayer.ieee80211.mac.originator.RtsPolicy\""
par CANANetwork.drone[0].wlan[0].mac.dcf.rtsPolicy rateSelectionModule "\"^.rateSelection\""
par CANANetwork.drone[0].wlan[0].mac.dcf.rtsPolicy ctsTimeout -1s
attr unit s
par CANANetwork.drone[0].wlan[0].mac.dcf.rtsPolicy rtsThreshold 2346B
attr unit B
par CANANetwork.drone[0].wlan[0].mac.dcf.ctsPolicy typename "\"inet.linklayer.ieee80211.mac.recipient.CtsPolicy\""
par CANANetwork.drone[0].wlan[0].mac.dcf.ctsPolicy rxModule "\"^.^.rx\""
par CANANetwork.drone[0].wlan[0].mac.dcf.ctsPolicy rateSelectionModule "\"^.rateSelection\""
par CANANetwork.drone[0].wlan[0].mac.dcf typename "\"inet.linklayer.ieee80211.mac.coordinationfunction.Dcf\""
par CANANetwork.drone[0].wlan[0].mac.dcf rxModule "\"^.rx\""
par CANANetwork.drone[0].wlan[0].mac.dcf txModule "\"^.tx\""
scalar CANANetwork.drone[0].wlan[0].mac.dcf frameSequenceFinished:count 0
attr recordingmode count
attr title "finished frame sequences, count"
statistic CANANetwork.drone[0].wlan[0].mac.dcf frameSequenceDuration:histogram
field count 0
field mean -nan
field stddev nan
field min nan
field max nan
field sum 0
field sqrsum 0
attr recordingmode histogram
attr source frameSequenceDuration(frameSequenceFinished)
attr title "frame sequence durations"
bin	-inf	0
bin	0	0
bin	1	0
statistic CANANetwork.drone[0].wlan[0].mac.dcf frameSequenceNumPackets:histogram
field count 0
field mean -nan
field stddev nan
field min nan
field max nan
field sum 0
field sqrsum 0
attr recordingmode histogram
attr source frameSequenceNumPackets(frameSequenceFinished)
attr title "frame sequences: number of packets"
bin	-inf	0
bin	0	0
bin	1	0
scalar CANANetwork.drone[0].wlan[0].mac.dcf packetReceivedFromPeer:count 0
attr interpolationmode none
attr recordingmode count
attr title "packets received, count"
scalar CANANetwork.drone[0].wlan[0].mac.dcf packetReceivedFromPeer:sum(packetBytes) 0
attr interpolationmode none
attr recordingmode sum(packetBytes)
attr title "packets received, sum(packetBytes)"
scalar CANANetwork.drone[0].wlan[0].mac.dcf packetReceivedFromPeerUnicast:count 0
attr interpolationmode none
attr recordingmode count
attr source ieee80211Unicast(packetReceivedFromPeer)
attr title "packets received: unicast, count"
scalar CANANetwork.drone[0].wlan[0].mac.dcf packetReceivedFromPeerUnicast:sum(packetBytes) 0
attr interpolationmode none
attr recordingmode sum(packetBytes)
attr source ieee80211Unicast(packetReceivedFromPeer)
attr title "packets received: unicast, sum(packetBytes)"
scalar CANANetwork.drone[0].wlan[0].mac.dcf packetReceivedFromPeerMulticast:count 0
attr interpolationmode none
attr recordingmode count
attr source ieee80211Multicast(packetReceivedFromPeer)
attr title "packets received: multicast, count"
scalar CANANetwork.drone[0].wlan[0].mac.dcf packetReceivedFromPeerMulticast:sum(packetBytes) 0
attr interpolationmode none
attr recordingmode sum(packetBytes)
attr source ieee80211Multicast(packetReceivedFromPeer)
attr title "packets received: multicast, sum(packetBytes)"
scalar CANANetwork.drone[0].wlan[0].mac.dcf packetReceivedFromPeerBroadcast:count 0
attr interpolationmode none
attr recordingmode count
attr source ieee80211Broadcast(packetReceivedFromPeer)
attr title "packets received: broadcast, count"
scalar CANANetwork.drone[0].wlan[0].mac.dcf packetReceivedFromPeerBroadcast:sum(packetBytes) 0
attr interpolationmode none
attr recordingmode sum(packetBytes)
attr source ieee80211Broadcast(packetReceivedFromPeer)
attr title "packets received: broadcast, sum(packetBytes)"
scalar CANANetwork.drone[0].wlan[0].mac.dcf packetReceivedFromPeerWithRetry:count 0
attr interpolationmode none
attr recordingmode count
attr source ieee80211Retry(packetReceivedFromPeer)
attr title "packets received: with retry, count"
scalar CANANetwork.drone[0].wlan[0].mac.dcf packetReceivedFromPeerWithRetry:sum(packetBytes) 0
attr interpolationmode none
attr recordingmode sum(packetBytes)
attr source ieee80211Retry(packetReceivedFromPeer)
attr title "packets received: with retry, sum(packetBytes)"
scalar CANANetwork.drone[0].wlan[0].mac.dcf packetReceivedFromPeerWithoutRetry:count 0
attr interpolationmode none
attr recordingmode count
attr source ieee80211NotRetry(packetReceivedFromPeer)
attr title "packets received: without retry, count"
scalar CANANetwork.drone[0].wlan[0].mac.dcf packetReceivedFromPeerWithoutRetry:sum(packetBytes) 0
attr interpolationmode none
attr recordingmode sum(packetBytes)
attr source ieee80211NotRetry(packetReceivedFromPeer)
attr title "packets received: without retry, sum(packetBytes)"
scalar CANANetwork.drone[0].wlan[0].mac.dcf packetSentToPeer:count 0
attr interpolationmode none
attr recordingmode count
attr title "packets sent, count"
scalar CANANetwork.drone[0].wlan[0].mac.dcf packetSentToPeer:sum(packetBytes) 0
attr interpolationmode none
attr recordingmode sum(packetBytes)
attr title "packets sent, sum(packetBytes)"
scalar CANANetwork.drone[0].wlan[0].mac.dcf packetSentToPeerUnicast:count 0
attr interpolationmode none
attr recordingmode count
attr source ieee80211Unicast(packetSentToPeer)
attr title "packets sent: unicast, count"
scalar CANANetwork.drone[0].wlan[0].mac.dcf packetSentToPeerUnicast:sum(packetBytes) 0
attr interpolationmode none
attr recordingmode sum(packetBytes)
attr source ieee80211Unicast(packetSentToPeer)
attr title "packets sent: unicast, sum(packetBytes)"
scalar CANANetwork.drone[0].wlan[0].mac.dcf packetSentToPeerMulticast:count 0
attr interpolationmode none
attr recordingmode count
attr source ieee80211Multicast(packetSentToPeer)
attr title "packets sent: multicast, count"
scalar CANANetwork.drone[0].wlan[0].mac.dcf packetSentToPeerMulticast:sum(packetBytes) 0
attr interpolationmode none
attr recordingmode sum(packetBytes)
attr source ieee80211Multicast(packetSentToPeer)
attr title "packets sent: multicast, sum(packetBytes)"
scalar CANANetwork.drone[0].wlan[0].mac.dcf packetSentToPeerBroadcast:count 0
attr interpolationmode none
attr recordingmode count
attr source ieee80211Broadcast(packetSentToPeer)
attr title "packets sent: broadcast , count"
scalar CANANetwork.drone[0].wlan[0].mac.dcf packetSentToPeerBroadcast:sum(packetBytes) 0
attr interpolationmode none
attr recordingmode sum(packetBytes)
attr source ieee80211Broadcast(packetSentToPeer)
attr title "packets sent: broadcast , sum(packetBytes)"
scalar CANANetwork.drone[0].wlan[0].mac.dcf packetSentToPeerWithRetry:count 0
attr interpolationmode none
attr recordingmode count
attr source ieee80211Retry(packetSentToPeer)
attr title "packets sent: with retry, count"
scalar CANANetwork.drone[0].wlan[0].mac.dcf packetSentToPeerWithRetry:sum(packetBytes) 0
attr interpolationmode none
attr recordingmode sum(packetBytes)
attr source ieee80211Retry(packetSentToPeer)
attr title "packets sent: with retry, sum(packetBytes)"
scalar CANANetwork.drone[0].wlan[0].mac.dcf packetSentToPeerWithoutRetry:count 0
attr interpolationmode none
attr recordingmode count
attr source ieee80211NotRetry(packetSentToPeer)
attr title "packets sent: without retry, count"
scalar CANANetwork.drone[0].wlan[0].mac.dcf packetSentToPeerWithoutRetry:sum(packetBytes) 0
attr interpolationmode none
attr recordingmode sum(packetBytes)
attr source ieee80211NotRetry(packetSentToPeer)
attr title "packets sent: without retry, sum(packetBytes)"
scalar CANANetwork.drone[0].wlan[0].mac.dcf packetDrop:count 0
attr interpolationmode none
attr recordingmode count
attr source packetDropped
attr title "packet drops, count"
scalar CANANetwork.drone[0].wlan[0].mac.dcf packetDrop:sum(packetBytes) 0
attr interpolationmode none
attr recordingmode sum(packetBytes)
attr source packetDropped
attr title "packet drops, sum(packetBytes)"
scalar CANANetwork.drone[0].wlan[0].mac.dcf packetDropNotAddressedToUs:count 0
attr interpolationmode none
attr recordingmode count
attr source packetDropReasonIsNotAddressedToUs(packetDropped)
attr title "packet drops: not addressed to us, count"
scalar CANANetwork.drone[0].wlan[0].mac.dcf packetDropNotAddressedToUs:sum(packetBytes) 0
attr interpolationmode none
attr recordingmode sum(packetBytes)
attr source packetDropReasonIsNotAddressedToUs(packetDropped)
attr title "packet drops: not addressed to us, sum(packetBytes)"
scalar CANANetwork.drone[0].wlan[0].mac.dcf packetDropQueueOverflow:count 0
attr interpolationmode none
attr recordingmode count
attr source packetDropReasonIsQueueOverflow(packetDropped)
attr title "packet drops: queue overflow, count"
scalar CANANetwork.drone[0].wlan[0].mac.dcf packetDropQueueOverflow:sum(packetBytes) 0
attr interpolationmode none
attr recordingmode sum(packetBytes)
attr source packetDropReasonIsQueueOverflow(packetDropped)
attr title "packet drops: queue overflow, sum(packetBytes)"
scalar CANANetwork.drone[0].wlan[0].mac.dcf packetDropRetryLimitReached:count 0
attr interpolationmode none
attr recordingmode count
attr source packetDropReasonIsRetryLimitReached(packetDropped)
attr title "packet drops: retry limit reached, count"
scalar CANANetwork.drone[0].wlan[0].mac.dcf packetDropRetryLimitReached:sum(packetBytes) 0
attr interpolationmode none
attr recordingmode sum(packetBytes)
attr source packetDropReasonIsRetryLimitReached(packetDropped)
attr title "packet drops: retry limit reached, sum(packetBytes)"
scalar CANANetwork.drone[0].wlan[0].mac.dcf linkBroken:count 0
attr interpolationmode none
attr recordingmode count
attr title "link breaks, count"
par CANANetwork.drone[0].wlan[0].mac.ds typename "\"inet.linklayer.ieee80211.mac.Ds\""
par CANANetwork.drone[0].wlan[0].mac.ds mibModule "\"CANANetwork.drone[0].wlan[0].mib\""
par CANANetwork.drone[0].wlan[0].mac.rx typename "\"inet.linklayer.ieee80211.mac.Rx\""
par CANANetwork.drone[0].wlan[0].mac.tx typename "\"inet.linklayer.ieee80211.mac.Tx\""
par CANANetwork.drone[0].wlan[0].mac.tx rxModule "\"^.rx\""
par CANANetwork.drone[0].wlan[0].mac typename "\"inet.linklayer.ieee80211.mac.Ieee80211Mac\""
par CANANetwork.drone[0].wlan[0].mac interfaceTableModule "\"CANANetwork.drone[0].interfaceTable\""
par CANANetwork.drone[0].wlan[0].mac mibModule "\"CANANetwork.drone[0].wlan[0].mib\""
par CANANetwork.drone[0].wlan[0].mac modeSet "\"g(mixed)\""
attr enum a,b,g(erp),g(mixed),n(mixed-2.4Ghz),p,ac
par CANANetwork.drone[0].wlan[0].mac fcsMode "\"declared\""
attr enum declared,computed
par CANANetwork.drone[0].wlan[0].mac initialRadioMode "\"receiver\""
attr enum off,sleep,receiver,transmitter,transceiver
par CANANetwork.drone[0].wlan[0].mac mtu 2304B
attr unit B
par CANANetwork.drone[0].wlan[0].mac qosStation false
scalar CANANetwork.drone[0].wlan[0].mac packetReceivedFromLower:count 0
attr interpolationmode none
attr recordingmode count
attr title "packets received from lower layer, count"
scalar CANANetwork.drone[0].wlan[0].mac packetReceivedFromLower:sum(packetBytes) 0
attr interpolationmode none
attr recordingmode sum(packetBytes)
attr title "packets received from lower layer, sum(packetBytes)"
scalar CANANetwork.drone[0].wlan[0].mac packetSentToLower:count 0
attr interpolationmode none
attr recordingmode count
attr title "packets sent to lower layer, count"
scalar CANANetwork.drone[0].wlan[0].mac packetSentToLower:sum(packetBytes) 0
attr interpolationmode none
attr recordingmode sum(packetBytes)
attr title "packets sent to lower layer, sum(packetBytes)"
scalar CANANetwork.drone[0].wlan[0].mac packetReceivedFromUpper:count 0
attr interpolationmode none
attr recordingmode count
attr title "packets received from upper layer, count"
scalar CANANetwork.drone[0].wlan[0].mac packetReceivedFromUpper:sum(packetBytes) 0
attr interpolationmode none
attr recordingmode sum(packetBytes)
attr title "packets received from upper layer, sum(packetBytes)"
scalar CANANetwork.drone[0].wlan[0].mac packetSentToUpper:count 0
attr interpolationmode none
attr recordingmode count
attr title "packets sent to upper layer, count"
scalar CANANetwork.drone[0].wlan[0].mac packetSentToUpper:sum(packetBytes) 0
attr interpolationmode none
attr recordingmode sum(packetBytes)
attr title "packets sent to upper layer, sum(packetBytes)"
scalar CANANetwork.drone[0].wlan[0].mac packetDrop:count 0
attr interpolationmode none
attr recordingmode count
attr source packetDropped
attr title "packet drops, count"
scalar CANANetwork.drone[0].wlan[0].mac packetDrop:sum(packetBytes) 0
attr interpolationmode none
attr recordingmode sum(packetBytes)
attr source packetDropped
attr title "packet drops, sum(packetBytes)"
scalar CANANetwork.drone[0].wlan[0].mac packetDropIncorrectlyReceived:count 0
attr interpolationmode none
attr recordingmode count
attr source packetDropReasonIsIncorrectlyReceived(packetDropped)
attr title "packet drops: incorrectly received, count"
scalar CANANetwork.drone[0].wlan[0].mac packetDropIncorrectlyReceived:sum(packetBytes) 0
attr interpolationmode none
attr recordingmode sum(packetBytes)
attr source packetDropReasonIsIncorrectlyReceived(packetDropped)
attr title "packet drops: incorrectly received, sum(packetBytes)"
scalar CANANetwork.drone[0].wlan[0].mac packetDropNotAddressedToUs:count 0
attr interpolationmode none
attr recordingmode count
attr source packetDropReasonIsNotAddressedToUs(packetDropped)
attr title "packet drops: not addressed to us, count"
scalar CANANetwork.drone[0].wlan[0].mac packetDropNotAddressedToUs:sum(packetBytes) 0
attr interpolationmode none
attr recordingmode sum(packetBytes)
attr source packetDropReasonIsNotAddressedToUs(packetDropped)
attr title "packet drops: not addressed to us, sum(packetBytes)"
scalar CANANetwork.drone[0].wlan[0].mac packetDropQueueOverflow:count 0
attr interpolationmode none
attr recordingmode count
attr source packetDropReasonIsQueueOverflow(packetDropped)
attr title "packet drops: queue overflow, count"
scalar CANANetwork.drone[0].wlan[0].mac packetDropQueueOverflow:sum(packetBytes) 0
attr interpolationmode none
attr recordingmode sum(packetBytes)
attr source packetDropReasonIsQueueOverflow(packetDropped)
attr title "packet drops: queue overflow, sum(packetBytes)"
scalar CANANetwork.drone[0].wlan[0].mac packetDropRetryLimitReached:count 0
attr interpolationmode none
attr recordingmode count
attr source packetDropReasonIsRetryLimitReached(packetDropped)
attr title "packet drops: retry limit reached, count"
scalar CANANetwork.drone[0].wlan[0].mac packetDropRetryLimitReached:sum(packetBytes) 0
attr interpolationmode none
attr recordingmode sum(packetBytes)
attr source packetDropReasonIsRetryLimitReached(packetDropped)
attr title "packet drops: retry limit reached, sum(packetBytes)"
scalar CANANetwork.drone[0].wlan[0].mac packetDropDuplicateDetected:count 0
attr interpolationmode none
attr recordingmode count
attr source packetDropReasonIsDuplicateDetected(packetDropped)
attr title "packet drops: duplicate detected, count"
scalar CANANetwork.drone[0].wlan[0].mac packetDropDuplicateDetected:sum(packetBytes) 0
attr interpolationmode none
attr recordingmode sum(packetBytes)
attr source packetDropReasonIsDuplicateDetected(packetDropped)
attr title "packet drops: duplicate detected, sum(packetBytes)"
scalar CANANetwork.drone[0].wlan[0].mac packetDropOther:count 0
attr interpolationmode none
attr recordingmode count
attr source packetDropReasonIsOther(packetDropped)
attr title "packet drops: other, count"
scalar CANANetwork.drone[0].wlan[0].mac packetDropOther:sum(packetBytes) 0
attr interpolationmode none
attr recordingmode sum(packetBytes)
attr source packetDropReasonIsOther(packetDropped)
attr title "packet drops: other, sum(packetBytes)"
scalar CANANetwork.drone[0].wlan[0].mac linkBroken:count 0
attr interpolationmode none
attr recordingmode count
attr title "link breaks, count"
par CANANetwork.drone[0].wlan[0].radio.antenna typename "\"inet.physicallayer.wireless.common.antenna.IsotropicAntenna\""
par CANANetwork.drone[0].wlan[0].radio.antenna mobilityModule "\"^.^.^.mobility\""
par CANANetwork.drone[0].wlan[0].radio.antenna numAntennas 1
par CANANetwork.drone[0].wlan[0].radio.transmitter typename "\"inet.physicallayer.wireless.ieee80211.packetlevel.Ieee80211ScalarTransmitter\""
par CANANetwork.drone[0].wlan[0].radio.transmitter preambleDuration -1s
attr unit s
par CANANetwork.drone[0].wlan[0].radio.transmitter headerLength 192b
attr unit b
par CANANetwork.drone[0].wlan[0].radio.transmitter bitrate -1bps
attr unit bps
par CANANetwork.drone[0].wlan[0].radio.transmitter power 0.02W
attr unit W
par CANANetwork.drone[0].wlan[0].radio.transmitter centerFrequency 2.412e+09Hz
attr unit Hz
par CANANetwork.drone[0].wlan[0].radio.transmitter bandwidth "nan Hz"
attr unit Hz
par CANANetwork.drone[0].wlan[0].radio.transmitter modulation "\"BPSK\""
par CANANetwork.drone[0].wlan[0].radio.transmitter opMode "\"g(mixed)\""
attr enum a,b,g(erp),g(mixed),n(mixed-2.4Ghz),p,ac
par CANANetwork.drone[0].wlan[0].radio.transmitter bandName "\"2.4 GHz\""
attr enum "2.4 GHz,5 GHz,5 GHz (20 MHz),5 GHz (40 MHz),5 GHz (80 MHz),5 GHz (160 MHz),5.9 GHz"
par CANANetwork.drone[0].wlan[0].radio.transmitter channelNumber 0
par CANANetwork.drone[0].wlan[0].radio.receiver.errorModel typename "\"inet.physicallayer.wireless.ieee80211.packetlevel.errormodel.Ieee80211NistErrorModel\""
par CANANetwork.drone[0].wlan[0].radio.receiver.errorModel corruptionMode "\"packet\""
attr enum packet,chunk,byte,bit
par CANANetwork.drone[0].wlan[0].radio.receiver.errorModel snirMode "\"min\""
attr unit min,mean
par CANANetwork.drone[0].wlan[0].radio.receiver.errorModel snirOffset 0dB
attr unit dB
par CANANetwork.drone[0].wlan[0].radio.receiver typename "\"inet.physicallayer.wireless.ieee80211.packetlevel.Ieee80211ScalarReceiver\""
par CANANetwork.drone[0].wlan[0].radio.receiver snirThreshold 4dB
attr unit dB
par CANANetwork.drone[0].wlan[0].radio.receiver snirThresholdMode "\"min\""
attr unit min,mean
par CANANetwork.drone[0].wlan[0].radio.receiver energyDetection -85dBm
attr unit dBm
par CANANetwork.drone[0].wlan[0].radio.receiver sensitivity -85dBm
attr unit dBm
par CANANetwork.drone[0].wlan[0].radio.receiver centerFrequency 2.412e+09Hz
attr unit Hz
par CANANetwork.drone[0].wlan[0].radio.receiver bandwidth 2.2e+07Hz
attr unit Hz
par CANANetwork.drone[0].wlan[0].radio.receiver modulation "\"BPSK\""
par CANANetwork.drone[0].wlan[0].radio.receiver opMode "\"g(mixed)\""
attr enum a,b,g(erp),g(mixed),n(mixed-2.4Ghz),p,ac
par CANANetwork.drone[0].wlan[0].radio.receiver bandName "\"2.4 GHz\""
attr enum "2.4 GHz,5 GHz,5 GHz (20 MHz),5 GHz (40 MHz),5 GHz (80 MHz),5 GHz (160 MHz),5.9 GHz"
par CANANetwork.drone[0].wlan[0].radio.receiver channelNumber 0
par CANANetwork.drone[0].wlan[0].radio typename "\"inet.physicallayer.wireless.ieee80211.packetlevel.Ieee80211ScalarRadio\""
par CANANetwork.drone[0].wlan[0].radio radioMediumModule "\"radioMedium\""
par CANANetwork.drone[0].wlan[0].radio energySourceModule "\"\""
par CANANetwork.drone[0].wlan[0].radio initialRadioMode "\"off\""
attr enum off,sleep,receiver,transmitter,transceiver
par CANANetwork.drone[0].wlan[0].radio switchingTimes "\"ms 0 0 0 0 0 0 0 0 0 0 0 0 0 0 0 0 0 0 0 0 0 0 0 0 0\""
par CANANetwork.drone[0].wlan[0].radio sendRawBytes false
par CANANetwork.drone[0].wlan[0].radio separateTransmissionParts false
par CANANetwork.drone[0].wlan[0].radio separateReceptionParts false
par CANANetwork.drone[0].wlan[0].radio displayCommunicationRange false
par CANANetwork.drone[0].wlan[0].radio displayInterferenceRange false
par CANANetwork.drone[0].wlan[0].radio centerFrequency 2.412e+09Hz
attr unit Hz
par CANANetwork.drone[0].wlan[0].radio bandwidth "nan Hz"
attr unit Hz
par CANANetwork.drone[0].wlan[0].radio signalAnalogRepresentation "\"scalar\""
attr enum scalar,dimensional
par CANANetwork.drone[0].wlan[0].radio opMode "\"g(mixed)\""
attr enum a,b,g(erp),g(mixed),n(mixed-2.4Ghz),p,ac
par CANANetwork.drone[0].wlan[0].radio bandName "\"2.4 GHz\""
attr enum "2.4 GHz,5 GHz,5 GHz (20 MHz),5 GHz (40 MHz),5 GHz (80 MHz),5 GHz (160 MHz),5.9 GHz"
par CANANetwork.drone[0].wlan[0].radio channelNumber 0
par CANANetwork.drone[0].wlan[0].radio crcMode "\"declared\""
attr enum declared,computed
statistic CANANetwork.drone[0].wlan[0].radio radioChannel:histogram
field count 1
field mean 0
field stddev nan
field min 0
field max 0
field sum 0
field sqrsum 0
attr interpolationmode sample-hold
attr recordingmode histogram
attr source radioChannelChanged
attr title "Radio channel"
bin	-inf	0
bin	-0.5	0
bin	-0.48	0
bin	-0.46	0
bin	-0.44	0
bin	-0.42	0
bin	-0.4	0
bin	-0.38	0
bin	-0.36	0
bin	-0.34	0
bin	-0.32	0
bin	-0.3	0
bin	-0.28	0
bin	-0.26	0
bin	-0.24	0
bin	-0.22	0
bin	-0.2	0
bin	-0.18	0
bin	-0.16	0
bin	-0.14	0
bin	-0.12	0
bin	-0.1	0
bin	-0.08	0
bin	-0.06	0
bin	-0.04	0
bin	-0.02	0
bin	0	1
bin	0.02	0
bin	0.04	0
bin	0.06	0
bin	0.08	0
bin	0.1	0
bin	0.12	0
bin	0.14	0
bin	0.16	0
bin	0.18	0
bin	0.2	0
bin	0.22	0
bin	0.24	0
bin	0.26	0
bin	0.28	0
bin	0.3	0
bin	0.32	0
bin	0.34	0
bin	0.36	0
bin	0.38	0
bin	0.4	0
bin	0.42	0
bin	0.44	0
bin	0.46	0
bin	0.48	0
bin	0.5	0
scalar CANANetwork.drone[0].wlan[0].radio radioMode:count 3
attr interpolationmode sample-hold
attr recordingmode count
attr source radioModeChanged
attr title "Radio mode, count"
scalar CANANetwork.drone[0].wlan[0].radio receptionState:count 1
attr interpolationmode sample-hold
attr recordingmode count
attr source receptionStateChanged
attr title "Radio reception state, count"
scalar CANANetwork.drone[0].wlan[0].radio transmissionState:count 0
attr interpolationmode sample-hold
attr recordingmode count
attr source transmissionStateChanged
attr title "Radio transmission state, count"
statistic CANANetwork.drone[0].wlan[0].radio minSnir:histogram
field count 0
field mean -nan
field stddev nan
field min nan
field max nan
field sum 0
field sqrsum 0
attr recordingmode histogram
attr source minimumSnir(packetSentToUpper)
attr title "Min SNIR"
bin	-inf	0
bin	0	0
bin	1	0
statistic CANANetwork.drone[0].wlan[0].radio packetErrorRate:histogram
field count 0
field mean -nan
field stddev nan
field min nan
field max nan
field sum 0
field sqrsum 0
attr recordingmode histogram
attr source packetErrorRate(packetSentToUpper)
attr title "Packet error rate"
bin	-inf	0
bin	0	0
bin	1	0
statistic CANANetwork.drone[0].wlan[0].radio bitErrorRate:histogram
field count 0
field mean -nan
field stddev nan
field min nan
field max nan
field sum 0
field sqrsum 0
attr recordingmode histogram
attr source bitErrorRate(packetSentToUpper)
attr title "Bit error rate"
bin	-inf	0
bin	0	0
bin	1	0
statistic CANANetwork.drone[0].wlan[0].radio symbolErrorRate:histogram
field count 0
field mean -nan
field stddev nan
field min nan
field max nan
field sum 0
field sqrsum 0
attr recordingmode histogram
attr source symbolErrorRate(packetSentToUpper)
attr title "Symbol error rate"
bin	-inf	0
bin	0	0
bin	1	0
par CANANetwork.drone[0].wlan[0] typename "\"inet.linklayer.ieee80211.Ieee80211Interface\""
par CANANetwork.drone[0].wlan[0] displayStringTextFormat "\"%a (%i)\\n%m\""
par CANANetwork.drone[0].wlan[0] recordPcap false
par CANANetwork.drone[0].wlan[0] numPcapRecorders 0
par CANANetwork.drone[0].wlan[0] interfaceTableModule "\"CANANetwork.drone[0].interfaceTable\""
par CANANetwork.drone[0].wlan[0] energySourceModule "\"\""
par CANANetwork.drone[0].wlan[0] opMode "\"g(mixed)\""
attr enum a,b,g(erp),g(mixed),n(mixed-2.4Ghz),p,ac
par CANANetwork.drone[0].wlan[0] address "\"0A-AA-00-00-00-01\""
attr mutable ""
par CANANetwork.drone[0].wlan[0] protocol "\"\""
par CANANetwork.drone[0].wlan[0] bitrate -1bps
attr unit bps
scalar CANANetwork.drone[0].wlan[0] packetDropInterfaceDown:count 0
attr interpolationmode none
attr recordingmode count
attr source packetDropReasonIsInterfaceDown(packetDropped)
attr title "packet drops: interface down, count"
scalar CANANetwork.drone[0].wlan[0] packetDropInterfaceDown:sum(packetBytes) 0
attr interpolationmode none
attr recordingmode sum(packetBytes)
attr source packetDropReasonIsInterfaceDown(packetDropped)
attr title "packet drops: interface down, sum(packetBytes)"
scalar CANANetwork.drone[0].wlan[0] packetDropNoCarrier:count 0
attr interpolationmode none
attr recordingmode count
attr source packetDropReasonIsNoCarrier(packetDropped)
attr title "packet drops: no carrier, count"
scalar CANANetwork.drone[0].wlan[0] packetDropNoCarrier:sum(packetBytes) 0
attr interpolationmode none
attr recordingmode sum(packetBytes)
attr source packetDropReasonIsNoCarrier(packetDropped)
attr title "packet drops: no carrier, sum(packetBytes)"
par CANANetwork.drone[0].ipv4.transportIn.channel typename "\"ned.IdealChannel\""
par CANANetwork.drone[0].ipv4.up.out[0].channel typename "\"ned.IdealChannel\""
par CANANetwork.drone[0].ipv4.lp.out[2].channel typename "\"ned.IdealChannel\""
par CANANetwork.drone[0].ipv4.ifIn.channel typename "\"ned.IdealChannel\""
par CANANetwork.drone[0].ipv4.configurator typename "\"inet.networklayer.configurator.ipv4.Ipv4NodeConfigurator\""
par CANANetwork.drone[0].ipv4.configurator interfaceTableModule "\"CANANetwork.drone[0].interfaceTable\""
par CANANetwork.drone[0].ipv4.configurator routingTableModule "\"CANANetwork.drone[0].ipv4.routingTable\""
par CANANetwork.drone[0].ipv4.configurator networkConfiguratorModule "\"configurator\""
par CANANetwork.drone[0].ipv4.configurator configureRoutingTable true
par CANANetwork.drone[0].ipv4.routingTable typename "\"inet.networklayer.ipv4.Ipv4RoutingTable\""
par CANANetwork.drone[0].ipv4.routingTable interfaceTableModule "\"CANANetwork.drone[0].interfaceTable\""
par CANANetwork.drone[0].ipv4.routingTable routerId "\"auto\""
par CANANetwork.drone[0].ipv4.routingTable netmaskRoutes "\"*\""
par CANANetwork.drone[0].ipv4.routingTable forwarding true
par CANANetwork.drone[0].ipv4.routingTable multicastForwarding false
par CANANetwork.drone[0].ipv4.routingTable useAdminDist false
par CANANetwork.drone[0].ipv4.routingTable routingFile "\"\""
par CANANetwork.drone[0].ipv4.natTable typename "\"inet.networklayer.ipv4.Ipv4NatTable\""
par CANANetwork.drone[0].ipv4.natTable networkProtocolModule "\"^.ip\""
par CANANetwork.drone[0].ipv4.natTable config "<config/> at content:1"
par CANANetwork.drone[0].ipv4.up typename "\"inet.common.MessageDispatcher\""
par CANANetwork.drone[0].ipv4.up displayStringTextFormat "\"processed %p pk (%l)\""
par CANANetwork.drone[0].ipv4.up forwardServiceRegistration true
par CANANetwork.drone[0].ipv4.up forwardProtocolRegistration true
par CANANetwork.drone[0].ipv4.igmp typename "\"inet.networklayer.ipv4.Igmpv2\""
par CANANetwork.drone[0].ipv4.igmp interfaceTableModule "\"CANANetwork.drone[0].interfaceTable\""
par CANANetwork.drone[0].ipv4.igmp routingTableModule "\"CANANetwork.drone[0].ipv4.routingTable\""
par CANANetwork.drone[0].ipv4.igmp crcMode "\"declared\""
attr enum declared,computed
par CANANetwork.drone[0].ipv4.igmp enabled true
par CANANetwork.drone[0].ipv4.igmp robustnessVariable 2
par CANANetwork.drone[0].ipv4.igmp queryInterval 125s
attr unit s
par CANANetwork.drone[0].ipv4.igmp queryResponseInterval 10s
attr unit s
par CANANetwork.drone[0].ipv4.igmp groupMembershipInterval 260s
attr unit s
par CANANetwork.drone[0].ipv4.igmp otherQuerierPresentInterval 255s
attr unit s
par CANANetwork.drone[0].ipv4.igmp startupQueryInterval 31.25s
attr unit s
par CANANetwork.drone[0].ipv4.igmp startupQueryCount 2
par CANANetwork.drone[0].ipv4.igmp lastMemberQueryInterval 1s
attr unit s
par CANANetwork.drone[0].ipv4.igmp lastMemberQueryCount 2
par CANANetwork.drone[0].ipv4.igmp unsolicitedReportInterval 10s
attr unit s
par CANANetwork.drone[0].ipv4.icmp typename "\"inet.networklayer.ipv4.Icmp\""
par CANANetwork.drone[0].ipv4.icmp interfaceTableModule "\"CANANetwork.drone[0].interfaceTable\""
par CANANetwork.drone[0].ipv4.icmp routingTableModule "\"CANANetwork.drone[0].ipv4.routingTable\""
par CANANetwork.drone[0].ipv4.icmp crcMode "\"declared\""
attr enum declared,computed
attr mutable ""
par CANANetwork.drone[0].ipv4.icmp quoteLength 8B
attr mutable ""
attr unit B
par CANANetwork.drone[0].ipv4.mp typename "\"inet.common.MessageDispatcher\""
par CANANetwork.drone[0].ipv4.mp displayStringTextFormat "\"processed %p pk (%l)\""
par CANANetwork.drone[0].ipv4.mp forwardServiceRegistration true
par CANANetwork.drone[0].ipv4.mp forwardProtocolRegistration true
par CANANetwork.drone[0].ipv4.ip typename "\"inet.networklayer.ipv4.Ipv4\""
par CANANetwork.drone[0].ipv4.ip interfaceTableModule "\"CANANetwork.drone[0].interfaceTable\""
par CANANetwork.drone[0].ipv4.ip routingTableModule "\"CANANetwork.drone[0].ipv4.routingTable\""
par CANANetwork.drone[0].ipv4.ip arpModule "\"CANANetwork.drone[0].ipv4.arp\""
par CANANetwork.drone[0].ipv4.ip icmpModule "\"CANANetwork.drone[0].ipv4.icmp\""
par CANANetwork.drone[0].ipv4.ip crcMode "\"declared\""
attr enum declared,computed
par CANANetwork.drone[0].ipv4.ip timeToLive 32
par CANANetwork.drone[0].ipv4.ip multicastTimeToLive 32
par CANANetwork.drone[0].ipv4.ip fragmentTimeout 60s
attr unit s
par CANANetwork.drone[0].ipv4.ip limitedBroadcast false
par CANANetwork.drone[0].ipv4.ip directBroadcastInterfaces "\"\""
scalar CANANetwork.drone[0].ipv4.ip packetDropAddressResolutionFailed:count 0
attr interpolationmode none
attr recordingmode count
attr source packetDropReasonIsAddressResolutionFailed(packetDropped)
attr title "packet drop: address resolution failed, count"
scalar CANANetwork.drone[0].ipv4.ip packetDropAddressResolutionFailed:sum(packetBytes) 0
attr interpolationmode none
attr recordingmode sum(packetBytes)
attr source packetDropReasonIsAddressResolutionFailed(packetDropped)
attr title "packet drop: address resolution failed, sum(packetBytes)"
scalar CANANetwork.drone[0].ipv4.ip packetDropHopLimitReached:count 0
attr interpolationmode none
attr recordingmode count
attr source packetDropReasonIsHopLimitReached(packetDropped)
attr title "packet drop: hop limit reached, count"
scalar CANANetwork.drone[0].ipv4.ip packetDropHopLimitReached:sum(packetBytes) 0
attr interpolationmode none
attr recordingmode sum(packetBytes)
attr source packetDropReasonIsHopLimitReached(packetDropped)
attr title "packet drop: hop limit reached, sum(packetBytes)"
scalar CANANetwork.drone[0].ipv4.ip packetDropForwardingDisabled:count 0
attr interpolationmode none
attr recordingmode count
attr source packetDropReasonIsForwardingDisabled(packetDropped)
attr title "packet drop: forwarding disabled, count"
scalar CANANetwork.drone[0].ipv4.ip packetDropForwardingDisabled:sum(packetBytes) 0
attr interpolationmode none
attr recordingmode sum(packetBytes)
attr source packetDropReasonIsForwardingDisabled(packetDropped)
attr title "packet drop: forwarding disabled, sum(packetBytes)"
scalar CANANetwork.drone[0].ipv4.ip packetDropNoInterfaceFound:count 0
attr interpolationmode none
attr recordingmode count
attr source packetDropReasonIsNoInterfaceFound(packetDropped)
attr title "packet drop: no interface found, count"
scalar CANANetwork.drone[0].ipv4.ip packetDropNoInterfaceFound:sum(packetBytes) 0
attr interpolationmode none
attr recordingmode sum(packetBytes)
attr source packetDropReasonIsNoInterfaceFound(packetDropped)
attr title "packet drop: no interface found, sum(packetBytes)"
scalar CANANetwork.drone[0].ipv4.ip packetDropNoRouteFound:count 0
attr interpolationmode none
attr recordingmode count
attr source packetDropReasonIsNoRouteFound(packetDropped)
attr title "packet drop: no route found, count"
scalar CANANetwork.drone[0].ipv4.ip packetDropNoRouteFound:sum(packetBytes) 0
attr interpolationmode none
attr recordingmode sum(packetBytes)
attr source packetDropReasonIsNoRouteFound(packetDropped)
attr title "packet drop: no route found, sum(packetBytes)"
scalar CANANetwork.drone[0].ipv4.ip packetDropUndefined:count 0
attr interpolationmode none
attr recordingmode count
attr source packetDropReasonIsUndefined(packetDropped)
attr title "packet drop: undefined, count"
scalar CANANetwork.drone[0].ipv4.ip packetDropUndefined:sum(packetBytes) 0
attr interpolationmode none
attr recordingmode sum(packetBytes)
attr source packetDropReasonIsUndefined(packetDropped)
attr title "packet drop: undefined, sum(packetBytes)"
par CANANetwork.drone[0].ipv4.arp typename "\"inet.networklayer.arp.ipv4.Arp\""
par CANANetwork.drone[0].ipv4.arp interfaceTableModule "\"CANANetwork.drone[0].interfaceTable\""
par CANANetwork.drone[0].ipv4.arp routingTableModule "\"CANANetwork.drone[0].ipv4.routingTable\""
par CANANetwork.drone[0].ipv4.arp retryTimeout 1s
attr unit s
par CANANetwork.drone[0].ipv4.arp retryCount 3
par CANANetwork.drone[0].ipv4.arp cacheTimeout 120s
attr unit s
par CANANetwork.drone[0].ipv4.arp proxyArpInterfaces "\"\""
scalar CANANetwork.drone[0].ipv4.arp arpResolutionFailed:count 0
attr recordingmode count
attr title "ARP failed resolutions, count"
scalar CANANetwork.drone[0].ipv4.arp arpResolutionCompleted:count 0
attr recordingmode count
attr title "ARP completed resolutions, count"
scalar CANANetwork.drone[0].ipv4.arp arpResolutionInitiated:count 0
attr recordingmode count
attr title "ARP initiated resolutions, count"
scalar CANANetwork.drone[0].ipv4.arp arpReplySent:count 0
attr recordingmode count
attr source arpReplySent
attr title "ARP replies sent, count"
scalar CANANetwork.drone[0].ipv4.arp arpReplySent:sum(packetBytes) 0
attr recordingmode sum(packetBytes)
attr source arpReplySent
attr title "ARP replies sent, sum(packetBytes)"
scalar CANANetwork.drone[0].ipv4.arp arpRequestSent:count 0
attr recordingmode count
attr source arpRequestSent
attr title "ARP request sent, count"
scalar CANANetwork.drone[0].ipv4.arp arpRequestSent:sum(packetBytes) 0
attr recordingmode sum(packetBytes)
attr source arpRequestSent
attr title "ARP request sent, sum(packetBytes)"
par CANANetwork.drone[0].ipv4.lp typename "\"inet.common.MessageDispatcher\""
par CANANetwork.drone[0].ipv4.lp displayStringTextFormat "\"processed %p pk (%l)\""
par CANANetwork.drone[0].ipv4.lp forwardServiceRegistration true
par CANANetwork.drone[0].ipv4.lp forwardProtocolRegistration true
par CANANetwork.drone[0].ipv4 typename "\"inet.networklayer.ipv4.Ipv4NetworkLayer\""
par CANANetwork.drone[0].ipv4 forwarding true
par CANANetwork.drone[0].ipv4 multicastForwarding false
par CANANetwork.drone[0].ipv4 interfaceTableModule "\"CANANetwork.drone[0].interfaceTable\""
par CANANetwork.drone[0].ipv4 displayStringTextFormat "\"%i\""
par CANANetwork.drone[0].nl typename "\"inet.common.MessageDispatcher\""
par CANANetwork.drone[0].nl displayStringTextFormat "\"processed %p pk (%l)\""
par CANANetwork.drone[0].nl forwardServiceRegistration true
par CANANetwork.drone[0].nl forwardProtocolRegistration true
par CANANetwork.drone[0].udp typename "\"inet.transportlayer.udp.Udp\""
par CANANetwork.drone[0].udp interfaceTableModule "\"CANANetwork.drone[0].interfaceTable\""
par CANANetwork.drone[0].udp icmpModule "\"^.ipv4.icmp\""
par CANANetwork.drone[0].udp icmpv6Module "\"^.ipv6.icmpv6\""
par CANANetwork.drone[0].udp crcMode "\"declared\""
attr enum disabled,declared,computed
par CANANetwork.drone[0].udp defaultMulticastLoop true
scalar CANANetwork.drone[0].udp packetReceived:count 0
attr interpolationmode none
attr recordingmode count
attr source packetReceived
attr title "packets received, count"
scalar CANANetwork.drone[0].udp packetReceived:sum(packetBytes) 0
attr interpolationmode none
attr recordingmode sum(packetBytes)
attr source packetReceived
attr title "packets received, sum(packetBytes)"
scalar CANANetwork.drone[0].udp packetSent:count 0
attr interpolationmode none
attr recordingmode count
attr source packetSent
attr title "packets sent, count"
scalar CANANetwork.drone[0].udp packetSent:sum(packetBytes) 0
attr interpolationmode none
attr recordingmode sum(packetBytes)
attr source packetSent
attr title "packets sent, sum(packetBytes)"
scalar CANANetwork.drone[0].udp passedUpPk:count 0
attr interpolationmode none
attr recordingmode count
attr source packetSentToUpper
attr title "packets passed up, count"
scalar CANANetwork.drone[0].udp droppedPkWrongPort:count 0
attr interpolationmode none
attr recordingmode count
attr source packetDropReasonIsNoPortFound(packetDropped)
attr title "packets dropped (wrong port), count"
scalar CANANetwork.drone[0].udp droppedPkBadChecksum:count 0
attr interpolationmode none
attr recordingmode count
attr source packetDropReasonIsIncorrectlyReceived(packetDropped)
attr title "packets dropped (checksum error), count"
par CANANetwork.drone[0].tcp typename "\"inet.transportlayer.tcp.Tcp\""
par CANANetwork.drone[0].tcp crcMode "\"declared\""
attr enum declared,computed
par CANANetwork.drone[0].tcp advertisedWindow 7504
par CANANetwork.drone[0].tcp delayedAcksEnabled false
par CANANetwork.drone[0].tcp nagleEnabled true
par CANANetwork.drone[0].tcp limitedTransmitEnabled false
par CANANetwork.drone[0].tcp increasedIWEnabled false
par CANANetwork.drone[0].tcp sackSupport false
par CANANetwork.drone[0].tcp windowScalingSupport false
par CANANetwork.drone[0].tcp windowScalingFactor -1
par CANANetwork.drone[0].tcp timestampSupport false
par CANANetwork.drone[0].tcp mss 536
par CANANetwork.drone[0].tcp msl 120s
attr unit s
par CANANetwork.drone[0].tcp tcpAlgorithmClass "\"TcpReno\""
attr enum TcpVegas,TcpWestwood,TcpNewReno,TcpReno,TcpTahoe,TcpNoCongestionControl
par CANANetwork.drone[0].tcp useDataNotification false
par CANANetwork.drone[0].tcp dupthresh 3
par CANANetwork.drone[0].tcp initialSsthresh 4294967295
par CANANetwork.drone[0].tcp stopOperationExtraTime 0s
attr unit s
par CANANetwork.drone[0].tcp stopOperationTimeout 2s
attr unit s
par CANANetwork.drone[0].tcp ecnWillingness false
par CANANetwork.drone[0].tcp dctcpGamma 0.0625
par CANANetwork.drone[0].tn typename "\"inet.common.MessageDispatcher\""
par CANANetwork.drone[0].tn displayStringTextFormat "\"processed %p pk (%l)\""
par CANANetwork.drone[0].tn forwardServiceRegistration true
par CANANetwork.drone[0].tn forwardProtocolRegistration true
par CANANetwork.drone[0].at typename "\"inet.common.MessageDispatcher\""
par CANANetwork.drone[0].at displayStringTextFormat "\"processed %p pk (%l)\""
par CANANetwork.drone[0].at forwardServiceRegistration true
par CANANetwork.drone[0].at forwardProtocolRegistration true
par CANANetwork.drone[0].aodv typename "\"inet.routing.aodv.Aodv\""
par CANANetwork.drone[0].aodv routingTableModule "\"^.ipv4.routingTable\""
par CANANetwork.drone[0].aodv interfaceTableModule "\"CANANetwork.drone[0].interfaceTable\""
par CANANetwork.drone[0].aodv networkProtocolModule "\"^.ipv4.ip\""
par CANANetwork.drone[0].aodv askGratuitousRREP false
par CANANetwork.drone[0].aodv useHelloMessages false
par CANANetwork.drone[0].aodv useLocalRepair false
par CANANetwork.drone[0].aodv destinationOnlyFlag false
par CANANetwork.drone[0].aodv udpPort 654
par CANANetwork.drone[0].aodv interface "\"wlan0\""
par CANANetwork.drone[0].aodv maxPeriodicJitter 0.25s
attr unit s
par CANANetwork.drone[0].aodv periodicJitter "uniform(0s, maxPeriodicJitter)"
attr unit s
par CANANetwork.drone[0].aodv maxJitter 0.005s
attr unit s
par CANANetwork.drone[0].aodv jitter "uniform(0ms, maxJitter)"
attr unit s
par CANANetwork.drone[0].aodv helloInterval 1s
attr unit s
par CANANetwork.drone[0].aodv allowedHelloLoss 2
par CANANetwork.drone[0].aodv activeRouteTimeout 3s
attr unit s
par CANANetwork.drone[0].aodv netDiameter 35
par CANANetwork.drone[0].aodv nodeTraversalTime 0.04s
attr unit s
par CANANetwork.drone[0].aodv rerrRatelimit 10
par CANANetwork.drone[0].aodv rreqRetries 2
par CANANetwork.drone[0].aodv rreqRatelimit 10
par CANANetwork.drone[0].aodv timeoutBuffer 2
par CANANetwork.drone[0].aodv ttlStart 2
par CANANetwork.drone[0].aodv ttlIncrement 2
par CANANetwork.drone[0].aodv ttlThreshold 7
par CANANetwork.drone[0].aodv localAddTTL 2
par CANANetwork.drone[0].aodv myRouteTimeout 6s
attr unit s
par CANANetwork.drone[0].aodv deletePeriod 15s
attr unit s
par CANANetwork.drone[0].aodv blacklistTimeout 5.6s
attr unit s
par CANANetwork.drone[0].aodv netTraversalTime 2.8s
attr unit s
par CANANetwork.drone[0].aodv nextHopWait 0.05s
attr unit s
par CANANetwork.drone[0].aodv pathDiscoveryTime 5.6s
attr unit s
par CANANetwork.drone[0] typename "\"simu5g.nodes.drones.DroneAODVRouter1\""
par CANANetwork.drone[0] hasStatus false
par CANANetwork.drone[0] osgModel "\"\""
par CANANetwork.drone[0] osgModelColor "\"\""
par CANANetwork.drone[0] canvasImage "\"\""
par CANANetwork.drone[0] canvasImageColor "\"\""
par CANANetwork.drone[0] recordPcap false
par CANANetwork.drone[0] numPcapRecorders 0
par CANANetwork.drone[0] numLoInterfaces 1
par CANANetwork.drone[0] numWlanInterfaces 1
par CANANetwork.drone[0] numEthInterfaces 0
par CANANetwork.drone[0] numPppInterfaces 0
par CANANetwork.drone[0] numTunInterfaces 0
par CANANetwork.drone[0] numVirtInterfaces 0
par CANANetwork.drone[0] fcsMode "\"declared\""
attr enum declared,computed
par CANANetwork.drone[0] hasIpv4 true
par CANANetwork.drone[0] hasIpv6 false
par CANANetwork.drone[0] hasGn false
par CANANetwork.drone[0] forwarding true
par CANANetwork.drone[0] multicastForwarding false
par CANANetwork.drone[0] hasUdp true
par CANANetwork.drone[0] hasTcp true
par CANANetwork.drone[0] hasSctp false
par CANANetwork.drone[0] numApps 0
par CANANetwork.drone[1].radioIn[0].channel typename "\"ned.IdealChannel\""
par CANANetwork.drone[1].mobility typename "\"simu5g.nodes.drones.DroneNetMob2\""
par CANANetwork.drone[1].mobility subjectModule "\"^\""
par CANANetwork.drone[1].mobility coordinateSystemModule "\"\""
par CANANetwork.drone[1].mobility displayStringTextFormat "\"p: %p\\nv: %v\""
attr mutable ""
par CANANetwork.drone[1].mobility updateDisplayString true
par CANANetwork.drone[1].mobility constraintAreaMinX 0m
attr unit m
par CANANetwork.drone[1].mobility constraintAreaMinY 0m
attr unit m
par CANANetwork.drone[1].mobility constraintAreaMinZ 0m
attr unit m
par CANANetwork.drone[1].mobility constraintAreaMaxX 500m
attr unit m
par CANANetwork.drone[1].mobility constraintAreaMaxY 500m
attr unit m
par CANANetwork.drone[1].mobility constraintAreaMaxZ 100m
attr unit m
par CANANetwork.drone[1].mobility updateInterval 0.1s
attr unit s
par CANANetwork.drone[1].mobility faceForward true
par CANANetwork.drone[1].mobility ndst 30
par CANANetwork.drone[1].mobility nd 0
par CANANetwork.drone[1].mobility weightCapacity 20
par CANANetwork.drone[1].mobility remainingBattery 100
par CANANetwork.drone[1].mobility parcelSelecitionMethod 2
par CANANetwork.drone[1].mobility initialX 301.382m
attr unit m
par CANANetwork.drone[1].mobility initialY 428.973m
attr unit m
par CANANetwork.drone[1].mobility initialZ 54.4883m
attr unit m
par CANANetwork.drone[1].mobility initialMovementHeading 305.011deg
attr unit deg
par CANANetwork.drone[1].mobility initialMovementElevation 0deg
attr unit deg
par CANANetwork.drone[1].mobility initFromDisplayString false
par CANANetwork.drone[1].mobility changeInterval "truncnormal(2s, 0.5s)"
attr unit s
par CANANetwork.drone[1].mobility angleDelta "normal(0deg, 30deg)"
attr unit deg
par CANANetwork.drone[1].mobility rotationAxisAngle 0deg
attr unit deg
par CANANetwork.drone[1].mobility speed 5mps
attr unit mps
par CANANetwork.drone[1].interfaceTable typename "\"inet.networklayer.common.InterfaceTable\""
par CANANetwork.drone[1].interfaceTable displayAddresses false
par CANANetwork.drone[1].cb typename "\"inet.common.MessageDispatcher\""
par CANANetwork.drone[1].cb displayStringTextFormat "\"processed %p pk (%l)\""
par CANANetwork.drone[1].cb forwardServiceRegistration true
par CANANetwork.drone[1].cb forwardProtocolRegistration true
par CANANetwork.drone[1].bl typename "\"inet.common.MessageDispatcher\""
par CANANetwork.drone[1].bl displayStringTextFormat "\"processed %p pk (%l)\""
par CANANetwork.drone[1].bl forwardServiceRegistration true
par CANANetwork.drone[1].bl forwardProtocolRegistration true
par CANANetwork.drone[1].li typename "\"inet.common.MessageDispatcher\""
par CANANetwork.drone[1].li displayStringTextFormat "\"processed %p pk (%l)\""
par CANANetwork.drone[1].li forwardServiceRegistration true
par CANANetwork.drone[1].li forwardProtocolRegistration true
par CANANetwork.drone[1].lo[0].upperLayerIn.channel typename "\"ned.IdealChannel\""
par CANANetwork.drone[1].lo[0].lo.upperLayerOut.channel typename "\"ned.IdealChannel\""
par CANANetwork.drone[1].lo[0].lo typename "\"inet.linklayer.loopback.Loopback\""
par CANANetwork.drone[1].lo[0].lo interfaceTableModule "\"CANANetwork.drone[1].interfaceTable\""
par CANANetwork.drone[1].lo[0].lo mtu 4470B
attr unit B
scalar CANANetwork.drone[1].lo[0].lo rcvdPkFromHl:count 0
attr interpolationmode none
attr recordingmode count
attr source packetReceivedFromUpper
attr title "packets received from higher layer, count"
scalar CANANetwork.drone[1].lo[0].lo rcvdPkFromHl:sum(packetBytes) 0
attr interpolationmode none
attr recordingmode sum(packetBytes)
attr source packetReceivedFromUpper
attr title "packets received from higher layer, sum(packetBytes)"
scalar CANANetwork.drone[1].lo[0].lo passedUpPk:count 0
attr interpolationmode none
attr recordingmode count
attr source packetSentToUpper
attr title "packets passed to higher layer, count"
scalar CANANetwork.drone[1].lo[0].lo passedUpPk:sum(packetBytes) 0
attr interpolationmode none
attr recordingmode sum(packetBytes)
attr source packetSentToUpper
attr title "packets passed to higher layer, sum(packetBytes)"
par CANANetwork.drone[1].lo[0] typename "\"inet.linklayer.loopback.LoopbackInterface\""
par CANANetwork.drone[1].lo[0] displayStringTextFormat "\"%a (%i)\\n%m\""
par CANANetwork.drone[1].lo[0] recordPcap false
par CANANetwork.drone[1].lo[0] numPcapRecorders 0
par CANANetwork.drone[1].lo[0] interfaceTableModule "\"CANANetwork.drone[1].interfaceTable\""
scalar CANANetwork.drone[1].lo[0] packetDropInterfaceDown:count 0
attr interpolationmode none
attr recordingmode count
attr source packetDropReasonIsInterfaceDown(packetDropped)
attr title "packet drops: interface down, count"
scalar CANANetwork.drone[1].lo[0] packetDropInterfaceDown:sum(packetBytes) 0
attr interpolationmode none
attr recordingmode sum(packetBytes)
attr source packetDropReasonIsInterfaceDown(packetDropped)
attr title "packet drops: interface down, sum(packetBytes)"
scalar CANANetwork.drone[1].lo[0] packetDropNoCarrier:count 0
attr interpolationmode none
attr recordingmode count
attr source packetDropReasonIsNoCarrier(packetDropped)
attr title "packet drops: no carrier, count"
scalar CANANetwork.drone[1].lo[0] packetDropNoCarrier:sum(packetBytes) 0
attr interpolationmode none
attr recordingmode sum(packetBytes)
attr source packetDropReasonIsNoCarrier(packetDropped)
attr title "packet drops: no carrier, sum(packetBytes)"
par CANANetwork.drone[1].wlan[0].radioIn.channel typename "\"ned.IdealChannel\""
par CANANetwork.drone[1].wlan[0].llc.upperLayerOut.channel typename "\"ned.IdealChannel\""
par CANANetwork.drone[1].wlan[0].upperLayerIn.channel typename "\"ned.IdealChannel\""
par CANANetwork.drone[1].wlan[0].mib typename "\"inet.linklayer.ieee80211.mib.Ieee80211Mib\""
par CANANetwork.drone[1].wlan[0].llc typename "\"inet.linklayer.ieee80211.llc.Ieee80211LlcLpd\""
par CANANetwork.drone[1].wlan[0].llc registerProtocol false
par CANANetwork.drone[1].wlan[0].mgmt typename "\"inet.linklayer.ieee80211.mgmt.Ieee80211MgmtAdhoc\""
par CANANetwork.drone[1].wlan[0].mgmt mibModule "\"CANANetwork.drone[1].wlan[0].mib\""
par CANANetwork.drone[1].wlan[0].mgmt macModule "\"CANANetwork.drone[1].wlan[0].mac\""
par CANANetwork.drone[1].wlan[0].mgmt interfaceTableModule "\"CANANetwork.drone[1].interfaceTable\""
par CANANetwork.drone[1].wlan[0].mac.dcf.channelAccess.pendingQueue typename "\"inet.linklayer.ieee80211.mac.queue.PendingQueue\""
par CANANetwork.drone[1].wlan[0].mac.dcf.channelAccess.pendingQueue displayStringTextFormat "\"contains %p pk (%l) pushed %u\\npulled %o removed %r dropped %d\""
par CANANetwork.drone[1].wlan[0].mac.dcf.channelAccess.pendingQueue packetCapacity 100
par CANANetwork.drone[1].wlan[0].mac.dcf.channelAccess.pendingQueue dataCapacity -1b
attr unit b
par CANANetwork.drone[1].wlan[0].mac.dcf.channelAccess.pendingQueue dropperClass "\"inet::queueing::PacketAtCollectionEndDropper\""
par CANANetwork.drone[1].wlan[0].mac.dcf.channelAccess.pendingQueue comparatorClass "\"inet::ieee80211::MgmtOverDataComparator\""
par CANANetwork.drone[1].wlan[0].mac.dcf.channelAccess.pendingQueue bufferModule "\"\""
scalar CANANetwork.drone[1].wlan[0].mac.dcf.channelAccess.pendingQueue queueLength:last nan
attr autoWarmupFilter false
attr interpolationmode sample-hold
attr recordingmode last
attr source "warmup(atomic(constant0(packetPushEnded) + count(packetPushStarted) - count(packetPulled) - count(packetRemoved) - count(packetDropped)))"
attr title "queue length, last"
attr unit pk
scalar CANANetwork.drone[1].wlan[0].mac.dcf.channelAccess.pendingQueue queueLength:max nan
attr autoWarmupFilter false
attr interpolationmode sample-hold
attr recordingmode max
attr source "warmup(atomic(constant0(packetPushEnded) + count(packetPushStarted) - count(packetPulled) - count(packetRemoved) - count(packetDropped)))"
attr title "queue length, max"
attr unit pk
scalar CANANetwork.drone[1].wlan[0].mac.dcf.channelAccess.pendingQueue queueLength:timeavg -nan
attr autoWarmupFilter false
attr interpolationmode sample-hold
attr recordingmode timeavg
attr source "warmup(atomic(constant0(packetPushEnded) + count(packetPushStarted) - count(packetPulled) - count(packetRemoved) - count(packetDropped)))"
attr title "queue length, timeavg"
attr unit pk
scalar CANANetwork.drone[1].wlan[0].mac.dcf.channelAccess.pendingQueue queueBitLength:last nan
attr autoWarmupFilter false
attr interpolationmode sample-hold
attr recordingmode last
attr source "warmup(atomic(constant0(packetPushEnded) + sum(packetLength(packetPushStarted)) - sum(packetLength(packetPulled)) - sum(packetLength(packetRemoved)) - sum(packetLength(packetDropped))))"
attr title "queue bit length, last"
attr unit b
scalar CANANetwork.drone[1].wlan[0].mac.dcf.channelAccess.pendingQueue queueBitLength:max nan
attr autoWarmupFilter false
attr interpolationmode sample-hold
attr recordingmode max
attr source "warmup(atomic(constant0(packetPushEnded) + sum(packetLength(packetPushStarted)) - sum(packetLength(packetPulled)) - sum(packetLength(packetRemoved)) - sum(packetLength(packetDropped))))"
attr title "queue bit length, max"
attr unit b
scalar CANANetwork.drone[1].wlan[0].mac.dcf.channelAccess.pendingQueue queueBitLength:timeavg -nan
attr autoWarmupFilter false
attr interpolationmode sample-hold
attr recordingmode timeavg
attr source "warmup(atomic(constant0(packetPushEnded) + sum(packetLength(packetPushStarted)) - sum(packetLength(packetPulled)) - sum(packetLength(packetRemoved)) - sum(packetLength(packetDropped))))"
attr title "queue bit length, timeavg"
attr unit b
statistic CANANetwork.drone[1].wlan[0].mac.dcf.channelAccess.pendingQueue queueingTime:histogram
field count 0
field mean -nan
field stddev nan
field min nan
field max nan
field sum 0
field sqrsum 0
attr interpolationmode none
attr recordingmode histogram
attr source queueingTime(packetPulled)
attr title "queueing times"
attr unit s
bin	-inf	0
bin	0	0
bin	1	0
scalar CANANetwork.drone[1].wlan[0].mac.dcf.channelAccess.pendingQueue outgoingPackets:count 0
attr recordingmode count
attr source packetPulled
attr title "outgoing packets, count"
attr unit pk
scalar CANANetwork.drone[1].wlan[0].mac.dcf.channelAccess.pendingQueue outgoingPacketLengths:sum 0
attr interpolationmode none
attr recordingmode sum
attr source packetLength(packetPulled)
attr title "outgoing packet lengths, sum"
attr unit b
statistic CANANetwork.drone[1].wlan[0].mac.dcf.channelAccess.pendingQueue outgoingPacketLengths:histogram
field count 0
field mean -nan
field stddev nan
field min nan
field max nan
field sum 0
field sqrsum 0
attr interpolationmode none
attr recordingmode histogram
attr source packetLength(packetPulled)
attr title "outgoing packet lengths"
attr unit b
bin	-inf	0
bin	0	0
bin	1	0
statistic CANANetwork.drone[1].wlan[0].mac.dcf.channelAccess.pendingQueue flowQueueingTime:histogram
field count 0
field mean -nan
field stddev nan
field min nan
field max nan
field sum 0
field sqrsum 0
attr interpolationmode none
attr recordingmode histogram
attr source queueingTime(demuxFlow(packetPulled))
attr title "flow queueing times"
attr unit s
bin	-inf	0
bin	0	0
bin	1	0
scalar CANANetwork.drone[1].wlan[0].mac.dcf.channelAccess.pendingQueue incomingPackets:count 0
attr recordingmode count
attr source packetPushStarted
attr title "incoming packets, count"
attr unit pk
scalar CANANetwork.drone[1].wlan[0].mac.dcf.channelAccess.pendingQueue incomingPacketLengths:sum 0
attr interpolationmode none
attr recordingmode sum
attr source packetLength(packetPushStarted)
attr title "incoming packet lengths, sum"
attr unit b
statistic CANANetwork.drone[1].wlan[0].mac.dcf.channelAccess.pendingQueue incomingPacketLengths:histogram
field count 0
field mean -nan
field stddev nan
field min nan
field max nan
field sum 0
field sqrsum 0
attr interpolationmode none
attr recordingmode histogram
attr source packetLength(packetPushStarted)
attr title "incoming packet lengths"
attr unit b
bin	-inf	0
bin	0	0
bin	1	0
scalar CANANetwork.drone[1].wlan[0].mac.dcf.channelAccess.pendingQueue droppedPacketsQueueOverflow:count 0
attr interpolationmode none
attr recordingmode count
attr source packetDropReasonIsQueueOverflow(packetDropped)
attr title "dropped packets: queue overflow, count"
attr unit pk
scalar CANANetwork.drone[1].wlan[0].mac.dcf.channelAccess.pendingQueue droppedPacketLengthsQueueOverflow:sum 0
attr interpolationmode none
attr recordingmode sum
attr source packetLength(packetDropReasonIsQueueOverflow(packetDropped))
attr title "dropped packet lengths: queue overflow, sum"
attr unit b
par CANANetwork.drone[1].wlan[0].mac.dcf.channelAccess.inProgressFrames typename "\"inet.linklayer.ieee80211.mac.queue.InProgressFrames\""
par CANANetwork.drone[1].wlan[0].mac.dcf.channelAccess.inProgressFrames pendingQueueModule "\"^.pendingQueue\""
par CANANetwork.drone[1].wlan[0].mac.dcf.channelAccess.inProgressFrames originatorMacDataServiceModule "\"^.^.originatorMacDataService\""
par CANANetwork.drone[1].wlan[0].mac.dcf.channelAccess.inProgressFrames ackHandlerModule "\"^.^.ackHandler\""
statistic CANANetwork.drone[1].wlan[0].mac.dcf.channelAccess.inProgressFrames queueingTime:histogram
field count 0
field mean -nan
field stddev nan
field min nan
field max nan
field sum 0
field sqrsum 0
attr interpolationmode none
attr recordingmode histogram
attr source queueingTime(packetDequeued)
attr title "queueing times"
bin	-inf	0
bin	0	0
bin	1	0
scalar CANANetwork.drone[1].wlan[0].mac.dcf.channelAccess.inProgressFrames queueLength:max 0
attr autoWarmupFilter false
attr interpolationmode sample-hold
attr recordingmode max
attr source "warmup(count(packetEnqueued) - count(packetDequeued))"
attr title "queue length, max"
scalar CANANetwork.drone[1].wlan[0].mac.dcf.channelAccess.inProgressFrames queueLength:timeavg 0
attr autoWarmupFilter false
attr interpolationmode sample-hold
attr recordingmode timeavg
attr source "warmup(count(packetEnqueued) - count(packetDequeued))"
attr title "queue length, timeavg"
par CANANetwork.drone[1].wlan[0].mac.dcf.channelAccess.contention typename "\"inet.linklayer.ieee80211.mac.contention.Contention\""
par CANANetwork.drone[1].wlan[0].mac.dcf.channelAccess.contention initialChannelBusy true
par CANANetwork.drone[1].wlan[0].mac.dcf.channelAccess.contention backoffOptimization true
scalar CANANetwork.drone[1].wlan[0].mac.dcf.channelAccess.contention channelAccessGranted:count 0
attr recordingmode count
attr title "channel access granted, count"
scalar CANANetwork.drone[1].wlan[0].mac.dcf.channelAccess.contention stateChanged:count 2
attr enum IDLE,DEFER,IFS_AND_BACKOFF
attr interpolationmode none
attr recordingmode count
attr title "contention state changed, count"
attr type enum
par CANANetwork.drone[1].wlan[0].mac.dcf.channelAccess typename "\"inet.linklayer.ieee80211.mac.channelaccess.Dcaf\""
par CANANetwork.drone[1].wlan[0].mac.dcf.channelAccess difsn -1
par CANANetwork.drone[1].wlan[0].mac.dcf.channelAccess cwMin -1
par CANANetwork.drone[1].wlan[0].mac.dcf.channelAccess cwMax -1
par CANANetwork.drone[1].wlan[0].mac.dcf.channelAccess rxModule "\"^.^.rx\""
scalar CANANetwork.drone[1].wlan[0].mac.dcf.channelAccess channelOwnershipChanged:count 0
attr interpolationmode sample-hold
attr recordingmode count
attr title "channel ownership, count"
par CANANetwork.drone[1].wlan[0].mac.dcf.originatorMacDataService.fragmentationPolicy typename "\"inet.linklayer.ieee80211.mac.fragmentation.BasicFragmentationPolicy\""
par CANANetwork.drone[1].wlan[0].mac.dcf.originatorMacDataService.fragmentationPolicy fragmentationThreshold 1500B
attr unit B
par CANANetwork.drone[1].wlan[0].mac.dcf.originatorMacDataService typename "\"inet.linklayer.ieee80211.mac.originator.OriginatorMacDataService\""
[...]
par CANANetwork.visualizer.canvasVisualizer.interfaceTableVisualizer networkNodeVisualizerModule "\"^.networkNodeVisualizer\""
par CANANetwork.visualizer.canvasVisualizer.interfaceTableVisualizer displayInterfaceTables false
par CANANetwork.visualizer.canvasVisualizer.interfaceTableVisualizer displayWiredInterfacesAtConnections true
par CANANetwork.visualizer.canvasVisualizer.interfaceTableVisualizer displayBackground false
par CANANetwork.visualizer.canvasVisualizer.interfaceTableVisualizer nodeFilter "\"*\""
attr mutable ""
par CANANetwork.visualizer.canvasVisualizer.interfaceTableVisualizer interfaceFilter "\"not(lo*)\""
attr mutable ""
par CANANetwork.visualizer.canvasVisualizer.interfaceTableVisualizer format "\"%N %\\\\%a%/%l\""
attr mutable ""
par CANANetwork.visualizer.canvasVisualizer.interfaceTableVisualizer placementHint "\"top\""
par CANANetwork.visualizer.canvasVisualizer.interfaceTableVisualizer placementPriority 0
par CANANetwork.visualizer.canvasVisualizer.interfaceTableVisualizer font "\"<default>\""
par CANANetwork.visualizer.canvasVisualizer.interfaceTableVisualizer textColor "\"#005030\""
par CANANetwork.visualizer.canvasVisualizer.interfaceTableVisualizer backgroundColor "\"white\""
par CANANetwork.visualizer.canvasVisualizer.interfaceTableVisualizer opacity 1
par CANANetwork.visualizer.canvasVisualizer.interfaceTableVisualizer zIndex 10
par CANANetwork.visualizer.canvasVisualizer.dataLinkVisualizer typename "\"inet.visualizer.canvas.linklayer.DataLinkCanvasVisualizer\""
par CANANetwork.visualizer.canvasVisualizer.dataLinkVisualizer visualizationTargetModule "\"^.^.^\""
par CANANetwork.visualizer.canvasVisualizer.dataLinkVisualizer visualizationSubjectModule "\"^.^.^\""
par CANANetwork.visualizer.canvasVisualizer.dataLinkVisualizer tags "\"\""
par CANANetwork.visualizer.canvasVisualizer.dataLinkVisualizer displayLinks false
par CANANetwork.visualizer.canvasVisualizer.dataLinkVisualizer activityLevel "\"service\""
attr enum service,peer,protocol
par CANANetwork.visualizer.canvasVisualizer.dataLinkVisualizer nodeFilter "\"*\""
attr mutable ""
par CANANetwork.visualizer.canvasVisualizer.dataLinkVisualizer interfaceFilter "\"*\""
attr mutable ""
par CANANetwork.visualizer.canvasVisualizer.dataLinkVisualizer packetFilter "(omnetpp::cValueHolder)holder: \"*\""
attr mutable ""
par CANANetwork.visualizer.canvasVisualizer.dataLinkVisualizer lineColor "\"darkcyan\""
par CANANetwork.visualizer.canvasVisualizer.dataLinkVisualizer lineStyle "\"solid\""
par CANANetwork.visualizer.canvasVisualizer.dataLinkVisualizer lineWidth 3
par CANANetwork.visualizer.canvasVisualizer.dataLinkVisualizer lineShift 16
par CANANetwork.visualizer.canvasVisualizer.dataLinkVisualizer lineShiftMode "\"normal\""
par CANANetwork.visualizer.canvasVisualizer.dataLinkVisualizer lineContactSpacing 3
par CANANetwork.visualizer.canvasVisualizer.dataLinkVisualizer lineContactMode "\"rectangular\""
attr enum circular,rectangular
par CANANetwork.visualizer.canvasVisualizer.dataLinkVisualizer labelFormat "\"%n\""
par CANANetwork.visualizer.canvasVisualizer.dataLinkVisualizer labelFont "\"<default>, 8px\""
par CANANetwork.visualizer.canvasVisualizer.dataLinkVisualizer labelColor "\"darkcyan\""
par CANANetwork.visualizer.canvasVisualizer.dataLinkVisualizer fadeOutMode "\"realTime\""
attr enum realTime,animationTime,simulationTime
par CANANetwork.visualizer.canvasVisualizer.dataLinkVisualizer fadeOutTime 1s
attr unit s
par CANANetwork.visualizer.canvasVisualizer.dataLinkVisualizer fadeOutAnimationSpeed 0
par CANANetwork.visualizer.canvasVisualizer.dataLinkVisualizer holdAnimationTime 0s
attr unit s
par CANANetwork.visualizer.canvasVisualizer.dataLinkVisualizer zIndex 2
par CANANetwork.visualizer.canvasVisualizer.linkBreakVisualizer typename "\"inet.visualizer.canvas.linklayer.LinkBreakCanvasVisualizer\""
par CANANetwork.visualizer.canvasVisualizer.linkBreakVisualizer visualizationTargetModule "\"^.^.^\""
par CANANetwork.visualizer.canvasVisualizer.linkBreakVisualizer visualizationSubjectModule "\"^.^.^\""
par CANANetwork.visualizer.canvasVisualizer.linkBreakVisualizer tags "\"\""
par CANANetwork.visualizer.canvasVisualizer.linkBreakVisualizer displayLinkBreaks false
par CANANetwork.visualizer.canvasVisualizer.linkBreakVisualizer nodeFilter "\"*\""
attr mutable ""
par CANANetwork.visualizer.canvasVisualizer.linkBreakVisualizer interfaceFilter "\"*\""
attr mutable ""
par CANANetwork.visualizer.canvasVisualizer.linkBreakVisualizer packetFilter "(omnetpp::cValueHolder)holder: \"*\""
attr mutable ""
par CANANetwork.visualizer.canvasVisualizer.linkBreakVisualizer icon "\"status/stop\""
par CANANetwork.visualizer.canvasVisualizer.linkBreakVisualizer iconTintAmount 0
par CANANetwork.visualizer.canvasVisualizer.linkBreakVisualizer iconTintColor "\"\""
par CANANetwork.visualizer.canvasVisualizer.linkBreakVisualizer fadeOutMode "\"realTime\""
attr enum realTime,animationTime,simulationTime
par CANANetwork.visualizer.canvasVisualizer.linkBreakVisualizer fadeOutTime 1s
attr unit s
par CANANetwork.visualizer.canvasVisualizer.linkBreakVisualizer fadeOutAnimationSpeed 0
par CANANetwork.visualizer.canvasVisualizer.linkBreakVisualizer zIndex 2
par CANANetwork.visualizer.canvasVisualizer.ieee80211Visualizer typename "\"inet.visualizer.canvas.linklayer.Ieee80211CanvasVisualizer\""
par CANANetwork.visualizer.canvasVisualizer.ieee80211Visualizer visualizationTargetModule "\"^.^.^\""
par CANANetwork.visualizer.canvasVisualizer.ieee80211Visualizer visualizationSubjectModule "\"^.^.^\""
par CANANetwork.visualizer.canvasVisualizer.ieee80211Visualizer tags "\"\""
par CANANetwork.visualizer.canvasVisualizer.ieee80211Visualizer networkNodeVisualizerModule "\"^.networkNodeVisualizer\""
par CANANetwork.visualizer.canvasVisualizer.ieee80211Visualizer displayAssociations false
par CANANetwork.visualizer.canvasVisualizer.ieee80211Visualizer nodeFilter "\"*\""
attr mutable ""
par CANANetwork.visualizer.canvasVisualizer.ieee80211Visualizer interfaceFilter "\"*\""
attr mutable ""
par CANANetwork.visualizer.canvasVisualizer.ieee80211Visualizer minPower -85dBm
attr unit dBm
par CANANetwork.visualizer.canvasVisualizer.ieee80211Visualizer maxPower -50dBm
attr unit dBm
par CANANetwork.visualizer.canvasVisualizer.ieee80211Visualizer icons "\"misc/signal_power_0 misc/signal_power_1 misc/signal_power_2 misc/signal_power_3\""
par CANANetwork.visualizer.canvasVisualizer.ieee80211Visualizer iconColor "\"dark\""
attr enum light,dark
par CANANetwork.visualizer.canvasVisualizer.ieee80211Visualizer labelFont "\"<default>\""
par CANANetwork.visualizer.canvasVisualizer.ieee80211Visualizer labelColor "\"black\""
par CANANetwork.visualizer.canvasVisualizer.ieee80211Visualizer placementHint "\"top\""
par CANANetwork.visualizer.canvasVisualizer.ieee80211Visualizer placementPriority 0
par CANANetwork.visualizer.canvasVisualizer.ieee80211Visualizer zIndex 2
par CANANetwork.visualizer.canvasVisualizer.networkRouteVisualizer typename "\"inet.visualizer.canvas.networklayer.NetworkRouteCanvasVisualizer\""
par CANANetwork.visualizer.canvasVisualizer.networkRouteVisualizer visualizationTargetModule "\"^.^.^\""
par CANANetwork.visualizer.canvasVisualizer.networkRouteVisualizer visualizationSubjectModule "\"^.^.^\""
par CANANetwork.visualizer.canvasVisualizer.networkRouteVisualizer tags "\"\""
par CANANetwork.visualizer.canvasVisualizer.networkRouteVisualizer displayRoutes false
par CANANetwork.visualizer.canvasVisualizer.networkRouteVisualizer startPathSignal "\"packetReceivedFromUpper\""
par CANANetwork.visualizer.canvasVisualizer.networkRouteVisualizer extendPathSignal "\"packetReceivedFromLower\""
par CANANetwork.visualizer.canvasVisualizer.networkRouteVisualizer endPathSignal "\"packetSentToUpper\""
par CANANetwork.visualizer.canvasVisualizer.networkRouteVisualizer nodeFilter "\"*\""
attr mutable ""
par CANANetwork.visualizer.canvasVisualizer.networkRouteVisualizer packetFilter "(omnetpp::cValueHolder)holder: \"*\""
attr mutable ""
par CANANetwork.visualizer.canvasVisualizer.networkRouteVisualizer lineColor "\"dark\""
attr enum light,dark
par CANANetwork.visualizer.canvasVisualizer.networkRouteVisualizer lineStyle "\"solid\""
par CANANetwork.visualizer.canvasVisualizer.networkRouteVisualizer lineWidth 3
par CANANetwork.visualizer.canvasVisualizer.networkRouteVisualizer lineSmooth false
par CANANetwork.visualizer.canvasVisualizer.networkRouteVisualizer lineShift 16
par CANANetwork.visualizer.canvasVisualizer.networkRouteVisualizer lineShiftMode "\"normal\""
par CANANetwork.visualizer.canvasVisualizer.networkRouteVisualizer lineContactSpacing 3
par CANANetwork.visualizer.canvasVisualizer.networkRouteVisualizer lineContactMode "\"rectangular\""
attr enum circular,rectangular
par CANANetwork.visualizer.canvasVisualizer.networkRouteVisualizer labelFormat "\"%n\""
par CANANetwork.visualizer.canvasVisualizer.networkRouteVisualizer labelFont "\"<default>, 8px\""
par CANANetwork.visualizer.canvasVisualizer.networkRouteVisualizer labelColor "\"\""
par CANANetwork.visualizer.canvasVisualizer.networkRouteVisualizer fadeOutMode "\"realTime\""
attr enum realTime,animationTime,simulationTime
par CANANetwork.visualizer.canvasVisualizer.networkRouteVisualizer fadeOutTime 1s
attr unit s
par CANANetwork.visualizer.canvasVisualizer.networkRouteVisualizer fadeOutAnimationSpeed 0
par CANANetwork.visualizer.canvasVisualizer.networkRouteVisualizer zIndex 3
par CANANetwork.visualizer.canvasVisualizer.routingTableVisualizer typename "\"inet.visualizer.canvas.networklayer.RoutingTableCanvasVisualizer\""
par CANANetwork.visualizer.canvasVisualizer.routingTableVisualizer visualizationTargetModule "\"^.^.^\""
par CANANetwork.visualizer.canvasVisualizer.routingTableVisualizer visualizationSubjectModule "\"^.^.^\""
par CANANetwork.visualizer.canvasVisualizer.routingTableVisualizer tags "\"\""
par CANANetwork.visualizer.canvasVisualizer.routingTableVisualizer displayRoutingTables false
par CANANetwork.visualizer.canvasVisualizer.routingTableVisualizer displayRoutesIndividually true
par CANANetwork.visualizer.canvasVisualizer.routingTableVisualizer displayLabels true
par CANANetwork.visualizer.canvasVisualizer.routingTableVisualizer destinationFilter "\"*\""
attr mutable ""
par CANANetwork.visualizer.canvasVisualizer.routingTableVisualizer nodeFilter "\"*\""
attr mutable ""
par CANANetwork.visualizer.canvasVisualizer.routingTableVisualizer lineColor "\"black\""
par CANANetwork.visualizer.canvasVisualizer.routingTableVisualizer lineStyle "\"solid\""
par CANANetwork.visualizer.canvasVisualizer.routingTableVisualizer lineWidth 2
par CANANetwork.visualizer.canvasVisualizer.routingTableVisualizer lineShift 16
par CANANetwork.visualizer.canvasVisualizer.routingTableVisualizer lineShiftMode "\"normal\""
par CANANetwork.visualizer.canvasVisualizer.routingTableVisualizer lineContactSpacing 3
par CANANetwork.visualizer.canvasVisualizer.routingTableVisualizer lineContactMode "\"rectangular\""
attr enum circular,rectangular
par CANANetwork.visualizer.canvasVisualizer.routingTableVisualizer labelFormat "\"%d/%m -> %g (%n)\""
attr mutable ""
par CANANetwork.visualizer.canvasVisualizer.routingTableVisualizer labelFont "\"<default>, 8px\""
par CANANetwork.visualizer.canvasVisualizer.routingTableVisualizer labelColor "\"black\""
par CANANetwork.visualizer.canvasVisualizer.routingTableVisualizer zIndex 0
par CANANetwork.visualizer.canvasVisualizer.transportRouteVisualizer typename "\"inet.visualizer.canvas.transportlayer.TransportRouteCanvasVisualizer\""
par CANANetwork.visualizer.canvasVisualizer.transportRouteVisualizer visualizationTargetModule "\"^.^.^\""
par CANANetwork.visualizer.canvasVisualizer.transportRouteVisualizer visualizationSubjectModule "\"^.^.^\""
par CANANetwork.visualizer.canvasVisualizer.transportRouteVisualizer tags "\"\""
par CANANetwork.visualizer.canvasVisualizer.transportRouteVisualizer displayRoutes false
par CANANetwork.visualizer.canvasVisualizer.transportRouteVisualizer startPathSignal "\"packetReceivedFromUpper\""
par CANANetwork.visualizer.canvasVisualizer.transportRouteVisualizer extendPathSignal "\"packetReceivedFromLower\""
par CANANetwork.visualizer.canvasVisualizer.transportRouteVisualizer endPathSignal "\"packetSentToUpper\""
par CANANetwork.visualizer.canvasVisualizer.transportRouteVisualizer nodeFilter "\"*\""
attr mutable ""
par CANANetwork.visualizer.canvasVisualizer.transportRouteVisualizer packetFilter "(omnetpp::cValueHolder)holder: \"*\""
attr mutable ""
par CANANetwork.visualizer.canvasVisualizer.transportRouteVisualizer lineColor "\"dark\""
attr enum light,dark
par CANANetwork.visualizer.canvasVisualizer.transportRouteVisualizer lineStyle "\"solid\""
par CANANetwork.visualizer.canvasVisualizer.transportRouteVisualizer lineWidth 3
par CANANetwork.visualizer.canvasVisualizer.transportRouteVisualizer lineSmooth false
par CANANetwork.visualizer.canvasVisualizer.transportRouteVisualizer lineShift 16
par CANANetwork.visualizer.canvasVisualizer.transportRouteVisualizer lineShiftMode "\"normal\""
par CANANetwork.visualizer.canvasVisualizer.transportRouteVisualizer lineContactSpacing 3
par CANANetwork.visualizer.canvasVisualizer.transportRouteVisualizer lineContactMode "\"rectangular\""
attr enum circular,rectangular
par CANANetwork.visualizer.canvasVisualizer.transportRouteVisualizer labelFormat "\"%n\""
par CANANetwork.visualizer.canvasVisualizer.transportRouteVisualizer labelFont "\"<default>, 8px\""
par CANANetwork.visualizer.canvasVisualizer.transportRouteVisualizer labelColor "\"\""
par CANANetwork.visualizer.canvasVisualizer.transportRouteVisualizer fadeOutMode "\"realTime\""
attr enum realTime,animationTime,simulationTime
par CANANetwork.visualizer.canvasVisualizer.transportRouteVisualizer fadeOutTime 1s
attr unit s
par CANANetwork.visualizer.canvasVisualizer.transportRouteVisualizer fadeOutAnimationSpeed 0
par CANANetwork.visualizer.canvasVisualizer.transportRouteVisualizer zIndex 4
par CANANetwork.visualizer.canvasVisualizer.transportConnectionVisualizer typename "\"inet.visualizer.canvas.transportlayer.TransportConnectionCanvasVisualizer\""
par CANANetwork.visualizer.canvasVisualizer.transportConnectionVisualizer visualizationTargetModule "\"^.^.^\""
par CANANetwork.visualizer.canvasVisualizer.transportConnectionVisualizer visualizationSubjectModule "\"^.^.^\""
par CANANetwork.visualizer.canvasVisualizer.transportConnectionVisualizer tags "\"\""
par CANANetwork.visualizer.canvasVisualizer.transportConnectionVisualizer networkNodeVisualizerModule "\"^.networkNodeVisualizer\""
par CANANetwork.visualizer.canvasVisualizer.transportConnectionVisualizer displayTransportConnections false
par CANANetwork.visualizer.canvasVisualizer.transportConnectionVisualizer sourceNodeFilter "\"*\""
attr mutable ""
par CANANetwork.visualizer.canvasVisualizer.transportConnectionVisualizer sourcePortFilter "\"*\""
attr mutable ""
par CANANetwork.visualizer.canvasVisualizer.transportConnectionVisualizer destinationNodeFilter "\"*\""
attr mutable ""
par CANANetwork.visualizer.canvasVisualizer.transportConnectionVisualizer destinationPortFilter "\"*\""
attr mutable ""
par CANANetwork.visualizer.canvasVisualizer.transportConnectionVisualizer icon "\"misc/marker_s\""
par CANANetwork.visualizer.canvasVisualizer.transportConnectionVisualizer iconColor "\"dark\""
attr enum light,dark
par CANANetwork.visualizer.canvasVisualizer.transportConnectionVisualizer labelFont "\"<default>\""
par CANANetwork.visualizer.canvasVisualizer.transportConnectionVisualizer labelColor "\"black\""
par CANANetwork.visualizer.canvasVisualizer.transportConnectionVisualizer placementHint "\"top\""
par CANANetwork.visualizer.canvasVisualizer.transportConnectionVisualizer placementPriority 0
par CANANetwork.visualizer.canvasVisualizer.transportConnectionVisualizer zIndex 4
par CANANetwork.visualizer.canvasVisualizer.failureProtectionConfigurationVisualizer typename "\"inet.visualizer.canvas.configurator.FailureProtectionConfigurationCanvasVisualizer\""
par CANANetwork.visualizer.canvasVisualizer.failureProtectionConfigurationVisualizer visualizationTargetModule "\"^.^.^\""
par CANANetwork.visualizer.canvasVisualizer.failureProtectionConfigurationVisualizer visualizationSubjectModule "\"^.^.^\""
par CANANetwork.visualizer.canvasVisualizer.failureProtectionConfigurationVisualizer tags "\"\""
par CANANetwork.visualizer.canvasVisualizer.failureProtectionConfigurationVisualizer displayTrees false
par CANANetwork.visualizer.canvasVisualizer.failureProtectionConfigurationVisualizer lineColor "\"dark\""
attr enum light,dark
par CANANetwork.visualizer.canvasVisualizer.failureProtectionConfigurationVisualizer lineStyle "\"solid\""
par CANANetwork.visualizer.canvasVisualizer.failureProtectionConfigurationVisualizer lineWidth 3
par CANANetwork.visualizer.canvasVisualizer.failureProtectionConfigurationVisualizer lineSmooth false
par CANANetwork.visualizer.canvasVisualizer.failureProtectionConfigurationVisualizer lineShift 16
par CANANetwork.visualizer.canvasVisualizer.failureProtectionConfigurationVisualizer lineShiftMode "\"normal\""
par CANANetwork.visualizer.canvasVisualizer.failureProtectionConfigurationVisualizer lineContactSpacing 3
par CANANetwork.visualizer.canvasVisualizer.failureProtectionConfigurationVisualizer lineContactMode "\"rectangular\""
attr enum circular,rectangular
par CANANetwork.visualizer.canvasVisualizer.failureProtectionConfigurationVisualizer failureProtectionConfiguratorModule "\"failureProtectionConfigurator\""
par CANANetwork.visualizer.canvasVisualizer.failureProtectionConfigurationVisualizer streamFilter "\"*\""
par CANANetwork.visualizer.canvasVisualizer.failureProtectionConfigurationVisualizer zIndex 3
par CANANetwork.visualizer.canvasVisualizer.streamRedundancyConfigurationVisualizer typename "\"inet.visualizer.canvas.configurator.StreamRedundancyConfigurationCanvasVisualizer\""
par CANANetwork.visualizer.canvasVisualizer.streamRedundancyConfigurationVisualizer visualizationTargetModule "\"^.^.^\""
par CANANetwork.visualizer.canvasVisualizer.streamRedundancyConfigurationVisualizer visualizationSubjectModule "\"^.^.^\""
par CANANetwork.visualizer.canvasVisualizer.streamRedundancyConfigurationVisualizer tags "\"\""
par CANANetwork.visualizer.canvasVisualizer.streamRedundancyConfigurationVisualizer displayTrees false
par CANANetwork.visualizer.canvasVisualizer.streamRedundancyConfigurationVisualizer lineColor "\"dark\""
attr enum light,dark
par CANANetwork.visualizer.canvasVisualizer.streamRedundancyConfigurationVisualizer lineStyle "\"solid\""
par CANANetwork.visualizer.canvasVisualizer.streamRedundancyConfigurationVisualizer lineWidth 3
par CANANetwork.visualizer.canvasVisualizer.streamRedundancyConfigurationVisualizer lineSmooth false
par CANANetwork.visualizer.canvasVisualizer.streamRedundancyConfigurationVisualizer lineShift 16
par CANANetwork.visualizer.canvasVisualizer.streamRedundancyConfigurationVisualizer lineShiftMode "\"normal\""
par CANANetwork.visualizer.canvasVisualizer.streamRedundancyConfigurationVisualizer lineContactSpacing 3
par CANANetwork.visualizer.canvasVisualizer.streamRedundancyConfigurationVisualizer lineContactMode "\"rectangular\""
attr enum circular,rectangular
par CANANetwork.visualizer.canvasVisualizer.streamRedundancyConfigurationVisualizer streamRedundancyConfiguratorModule "\"streamRedundancyConfigurator\""
par CANANetwork.visualizer.canvasVisualizer.streamRedundancyConfigurationVisualizer streamFilter "\"*\""
par CANANetwork.visualizer.canvasVisualizer.streamRedundancyConfigurationVisualizer zIndex 3
par CANANetwork.visualizer.canvasVisualizer typename "\"inet.visualizer.canvas.integrated.IntegratedCanvasVisualizer\""
par CANANetwork.visualizer typename "\"inet.visualizer.common.IntegratedVisualizer\""
par CANANetwork typename "\"simu5g.simulations.NR.drones.CANANetwork\""
par CANANetwork numdrones 10
par CANANetwork numdst 5
par CANANetwork nbst 4

