file 2777530 1676193128                                         
version 3
run Handover-General-0-20230212-18:08:25-998645
attr configname Handover-General
attr datetime 20230212-18:08:25
attr datetimef 20230212-180825
attr experiment Handover-General
attr inifile omnetpp.ini
attr iterationvars ""
attr iterationvarsd ""
attr iterationvarsf ""
attr measurement ""
attr network simu5g.simulations.LTE.networks.MultiCell
attr processid 998645
attr repetition 0
attr replication #0
attr resultdir results
attr runnumber 0
attr seedset 0
config image-path ../../../images:../../../../inet4.4/images:../../../../veins-veins-5.2/subprojects/veins_inet/images:../../../../veins-veins-5.2/images
config **.ue1*.macCellId 1
config **.ue1*.masterId 1
config **.ue2*.macCellId 2
config **.ue2*.masterId 2
config **.cellularNic.phy.enableHandover true
config *.eNodeB*.numX2Apps 1
config *.eNodeB*.x2App[*].server.localPort "5000 + ancestorIndex(1)"
config *.eNodeB1.x2App[0].client.connectAddress "\"eNodeB2%x2ppp0\""
config *.eNodeB2.x2App[0].client.connectAddress "\"eNodeB1%x2ppp0\""
config **.mobility.initFromDisplayString false
config *.eNodeB1.mobility.initialX 300m
config *.eNodeB1.mobility.initialY 250m
config *.eNodeB2.mobility.initialX 400m
config *.eNodeB2.mobility.initialY 250m
config *.ue11.mobility.initialX 350m
config *.ue11.mobility.initialY 280m
config *.ue11.mobility.speed 10mps
config *.ue11.mobility.initialMovementHeading 0deg
config *.ue11.mobility.typename LinearMobility
config *.ue11.mobility.constraintAreaMinX 250m
config *.ue11.mobility.constraintAreaMaxX 450m
config *.ue12.mobility.initialX 320m
config *.ue12.mobility.initialY 280m
config *.ue12.mobility.speed 10mps
config *.ue12.mobility.initialMovementHeading 0deg
config *.ue12.mobility.typename LinearMobility
config *.ue12.mobility.constraintAreaMinX 250m
config *.ue12.mobility.constraintAreaMaxX 450m
config *.ue*.mobility.constraintAreaMaxX 750m
config *.ue*.mobility.constraintAreaMaxY 400m
config *.ue*.mobility.constraintAreaMinX 50m
config *.ue*.mobility.constraintAreaMinY 100m
config *.ue2*.mobility.initialX uniform(450m,750m)
config *.ue2*.mobility.initialY uniform(100m,400m)
config *.ue*.mobility.initialZ 0m
config **.eNodeB*.cellularNic.phy.targetBler 0.004
config image-path ../../images
config output-scalar-file-append false
config sim-time-limit 20s
config network simu5g.simulations.LTE.networks.MultiCell
config **.routingRecorder.enabled false
config **.vector-recording true
config **.cellularNic.channelModel[0].shadowing false
config **.cellularNic.channelModel[0].fading false
config **.mobility.constraintAreaMinZ 0m
config **.mobility.constraintAreaMaxZ 0m
config **.mobility.initFromDisplayString true
config **.numBands 25
config **.ueTxPower 26
config **.eNodeBTxPower 40
config *.configurator.config "xmldoc(\"./demo.xml\")"
config **.hasRNISupport false

vector 0 MultiCell.server.ppp[0].ppp transmissionState:vector ETV
attr interpolationmode sample-hold
attr recordingmode vector
attr source transmissionStateChanged
attr title "tx state"
vector 1 MultiCell.server.udp passedUpPk:vector(count) ETV
attr interpolationmode none
attr recordingmode vector(count)
attr source packetSentToUpper
attr title "packets passed up, count"
vector 2 MultiCell.server.udp droppedPkWrongPort:vector(count) ETV
attr interpolationmode none
attr recordingmode vector(count)
attr source packetDropReasonIsNoPortFound(packetDropped)
attr title "packets dropped (wrong port), count"
vector 3 MultiCell.server.udp droppedPkBadChecksum:vector(count) ETV
attr interpolationmode none
attr recordingmode vector(count)
attr source packetDropReasonIsIncorrectlyReceived(packetDropped)
attr title "packets dropped (checksum error), count"
vector 4 MultiCell.pgw.ppp[0].ppp transmissionState:vector ETV
attr interpolationmode sample-hold
attr recordingmode vector
attr source transmissionStateChanged
attr title "tx state"
vector 5 MultiCell.pgw.ppp[1].ppp transmissionState:vector ETV
attr interpolationmode sample-hold
attr recordingmode vector
attr source transmissionStateChanged
attr title "tx state"
vector 6 MultiCell.pgw.pppIf.ppp transmissionState:vector ETV
attr interpolationmode sample-hold
attr recordingmode vector
attr source transmissionStateChanged
attr title "tx state"
vector 7 MultiCell.pgw.udp passedUpPk:vector(count) ETV
attr interpolationmode none
attr recordingmode vector(count)
attr source packetSentToUpper
attr title "packets passed up, count"
vector 8 MultiCell.pgw.udp droppedPkWrongPort:vector(count) ETV
attr interpolationmode none
attr recordingmode vector(count)
attr source packetDropReasonIsNoPortFound(packetDropped)
attr title "packets dropped (wrong port), count"
vector 9 MultiCell.pgw.udp droppedPkBadChecksum:vector(count) ETV
attr interpolationmode none
attr recordingmode vector(count)
attr source packetDropReasonIsIncorrectlyReceived(packetDropped)
attr title "packets dropped (checksum error), count"
vector 10 MultiCell.router.ppp[0].ppp transmissionState:vector ETV
attr interpolationmode sample-hold
attr recordingmode vector
attr source transmissionStateChanged
attr title "tx state"
vector 11 MultiCell.router.ppp[1].ppp transmissionState:vector ETV
attr interpolationmode sample-hold
attr recordingmode vector
attr source transmissionStateChanged
attr title "tx state"
vector 12 MultiCell.eNodeB1.pppIf.ppp transmissionState:vector ETV
attr interpolationmode sample-hold
attr recordingmode vector
attr source transmissionStateChanged
attr title "tx state"
vector 13 MultiCell.eNodeB1.x2ppp[0].ppp transmissionState:vector ETV
attr interpolationmode sample-hold
attr recordingmode vector
attr source transmissionStateChanged
attr title "tx state"
vector 14 MultiCell.eNodeB1.pppMEHostIf.ppp transmissionState:vector ETV
attr interpolationmode sample-hold
attr recordingmode vector
attr source transmissionStateChanged
attr title "tx state"
vector 15 MultiCell.eNodeB1.udp passedUpPk:vector(count) ETV
attr interpolationmode none
attr recordingmode vector(count)
attr source packetSentToUpper
attr title "packets passed up, count"
vector 16 MultiCell.eNodeB1.udp droppedPkWrongPort:vector(count) ETV
attr interpolationmode none
attr recordingmode vector(count)
attr source packetDropReasonIsNoPortFound(packetDropped)
attr title "packets dropped (wrong port), count"
vector 17 MultiCell.eNodeB1.udp droppedPkBadChecksum:vector(count) ETV
attr interpolationmode none
attr recordingmode vector(count)
attr source packetDropReasonIsIncorrectlyReceived(packetDropped)
attr title "packets dropped (checksum error), count"
vector 18 MultiCell.eNodeB2.pppIf.ppp transmissionState:vector ETV
attr interpolationmode sample-hold
attr recordingmode vector
attr source transmissionStateChanged
attr title "tx state"
vector 19 MultiCell.eNodeB2.x2ppp[0].ppp transmissionState:vector ETV
attr interpolationmode sample-hold
attr recordingmode vector
attr source transmissionStateChanged
attr title "tx state"
vector 20 MultiCell.eNodeB2.pppMEHostIf.ppp transmissionState:vector ETV
attr interpolationmode sample-hold
attr recordingmode vector
attr source transmissionStateChanged
attr title "tx state"
vector 21 MultiCell.eNodeB2.udp passedUpPk:vector(count) ETV
attr interpolationmode none
attr recordingmode vector(count)
attr source packetSentToUpper
attr title "packets passed up, count"
vector 22 MultiCell.eNodeB2.udp droppedPkWrongPort:vector(count) ETV
attr interpolationmode none
attr recordingmode vector(count)
attr source packetDropReasonIsNoPortFound(packetDropped)
attr title "packets dropped (wrong port), count"
vector 23 MultiCell.eNodeB2.udp droppedPkBadChecksum:vector(count) ETV
attr interpolationmode none
attr recordingmode vector(count)
attr source packetDropReasonIsIncorrectlyReceived(packetDropped)
attr title "packets dropped (checksum error), count"
vector 24 MultiCell.ue11.udp passedUpPk:vector(count) ETV
attr interpolationmode none
attr recordingmode vector(count)
attr source packetSentToUpper
attr title "packets passed up, count"
vector 25 MultiCell.ue11.udp droppedPkWrongPort:vector(count) ETV
attr interpolationmode none
attr recordingmode vector(count)
attr source packetDropReasonIsNoPortFound(packetDropped)
attr title "packets dropped (wrong port), count"
vector 26 MultiCell.ue11.udp droppedPkBadChecksum:vector(count) ETV
attr interpolationmode none
attr recordingmode vector(count)
attr source packetDropReasonIsIncorrectlyReceived(packetDropped)
attr title "packets dropped (checksum error), count"
vector 27 MultiCell.ue12.udp passedUpPk:vector(count) ETV
attr interpolationmode none
attr recordingmode vector(count)
attr source packetSentToUpper
attr title "packets passed up, count"
vector 28 MultiCell.ue12.udp droppedPkWrongPort:vector(count) ETV
attr interpolationmode none
attr recordingmode vector(count)
attr source packetDropReasonIsNoPortFound(packetDropped)
attr title "packets dropped (wrong port), count"
vector 29 MultiCell.ue12.udp droppedPkBadChecksum:vector(count) ETV
attr interpolationmode none
attr recordingmode vector(count)
attr source packetDropReasonIsIncorrectlyReceived(packetDropped)
attr title "packets dropped (checksum error), count"
vector 30 MultiCell.ue21.udp passedUpPk:vector(count) ETV
attr interpolationmode none
attr recordingmode vector(count)
attr source packetSentToUpper
attr title "packets passed up, count"
vector 31 MultiCell.ue21.udp droppedPkWrongPort:vector(count) ETV
attr interpolationmode none
attr recordingmode vector(count)
attr source packetDropReasonIsNoPortFound(packetDropped)
attr title "packets dropped (wrong port), count"
vector 32 MultiCell.ue21.udp droppedPkBadChecksum:vector(count) ETV
attr interpolationmode none
attr recordingmode vector(count)
attr source packetDropReasonIsIncorrectlyReceived(packetDropped)
attr title "packets dropped (checksum error), count"
vector 33 MultiCell.ue22.udp passedUpPk:vector(count) ETV
attr interpolationmode none
attr recordingmode vector(count)
attr source packetSentToUpper
attr title "packets passed up, count"
vector 34 MultiCell.ue22.udp droppedPkWrongPort:vector(count) ETV
attr interpolationmode none
attr recordingmode vector(count)
attr source packetDropReasonIsNoPortFound(packetDropped)
attr title "packets dropped (wrong port), count"
vector 35 MultiCell.ue22.udp droppedPkBadChecksum:vector(count) ETV
attr interpolationmode none
attr recordingmode vector(count)
attr source packetDropReasonIsIncorrectlyReceived(packetDropped)
attr title "packets dropped (checksum error), count"
vector 36 MultiCell.ue11.cellularNic.phy servingCell:vector ETV
attr recordingmode vector
attr source servingCell
attr title "ID of the serving eNodeB for the UE"
attr unit ""
vector 37 MultiCell.ue12.cellularNic.phy servingCell:vector ETV
attr recordingmode vector
attr source servingCell
attr title "ID of the serving eNodeB for the UE"
attr unit ""
vector 38 MultiCell.ue21.cellularNic.phy servingCell:vector ETV
attr recordingmode vector
attr source servingCell
attr title "ID of the serving eNodeB for the UE"
attr unit ""
vector 39 MultiCell.ue22.cellularNic.phy servingCell:vector ETV
attr recordingmode vector
attr source servingCell
attr title "ID of the serving eNodeB for the UE"
attr unit ""
vector 40 MultiCell.eNodeB1.sctp "Throughput of Association 27" ETV
vector 41 MultiCell.eNodeB2.sctp "Throughput of Association 28" ETV
vector 42 MultiCell.eNodeB1.sctp "Throughput of Association 4" ETV
vector 43 MultiCell.eNodeB1.sctp "Fast Recovery State 4:10.0.5.2" ETV
vector 44 MultiCell.eNodeB2.sctp "Throughput of Association 8" ETV
vector 45 MultiCell.eNodeB2.sctp "Fast Recovery State 8:10.0.5.1" ETV
vector 46 MultiCell.eNodeB1.x2ppp[0].queue incomingPacketLengths:vector ETV
attr interpolationmode none
attr recordingmode vector
attr source packetLength(packetPushStarted)
attr title "incoming packet lengths"
attr unit b
vector 47 MultiCell.eNodeB1.x2ppp[0].queue queueingTime:vector ETV
attr interpolationmode none
attr recordingmode vector
attr source queueingTime(packetPulled)
attr title "queueing times"
attr unit s
vector 48 MultiCell.eNodeB1.x2ppp[0].queue outgoingPacketLengths:vector ETV
attr interpolationmode none
attr recordingmode vector
attr source packetLength(packetPulled)
attr title "outgoing packet lengths"
attr unit b
vector 49 MultiCell.eNodeB1.x2ppp[0].ppp txPk:vector(packetBytes) ETV
attr interpolationmode none
attr recordingmode vector(packetBytes)
attr source packetSentToLower
attr title "packets transmitted, packetBytes"
vector 50 MultiCell.eNodeB1.x2ppp[0].queue queueLength:vector ETV
attr autoWarmupFilter false
attr interpolationmode sample-hold
attr recordingmode vector
attr source "warmup(atomic(constant0(packetPushEnded) + count(packetPushStarted) - count(packetPulled) - count(packetRemoved) - count(packetDropped)))"
attr title "queue length"
attr unit pk
vector 51 MultiCell.eNodeB1.x2ppp[0].queue queueBitLength:vector ETV
attr autoWarmupFilter false
attr interpolationmode sample-hold
attr recordingmode vector
attr source "warmup(atomic(constant0(packetPushEnded) + sum(packetLength(packetPushStarted)) - sum(packetLength(packetPulled)) - sum(packetLength(packetRemoved)) - sum(packetLength(packetDropped))))"
attr title "queue bit length"
attr unit b
vector 52 MultiCell.eNodeB2.x2ppp[0].queue incomingPacketLengths:vector ETV
attr interpolationmode none
attr recordingmode vector
attr source packetLength(packetPushStarted)
attr title "incoming packet lengths"
attr unit b
vector 53 MultiCell.eNodeB2.x2ppp[0].queue queueingTime:vector ETV
attr interpolationmode none
attr recordingmode vector
attr source queueingTime(packetPulled)
attr title "queueing times"
attr unit s
vector 54 MultiCell.eNodeB2.x2ppp[0].queue outgoingPacketLengths:vector ETV
attr interpolationmode none
attr recordingmode vector
attr source packetLength(packetPulled)
attr title "outgoing packet lengths"
attr unit b
vector 55 MultiCell.eNodeB2.x2ppp[0].ppp txPk:vector(packetBytes) ETV
attr interpolationmode none
attr recordingmode vector(packetBytes)
attr source packetSentToLower
attr title "packets transmitted, packetBytes"
vector 56 MultiCell.eNodeB2.x2ppp[0].queue queueLength:vector ETV
attr autoWarmupFilter false
attr interpolationmode sample-hold
attr recordingmode vector
attr source "warmup(atomic(constant0(packetPushEnded) + count(packetPushStarted) - count(packetPulled) - count(packetRemoved) - count(packetDropped)))"
attr title "queue length"
attr unit pk
vector 57 MultiCell.eNodeB2.x2ppp[0].queue queueBitLength:vector ETV
attr autoWarmupFilter false
attr interpolationmode sample-hold
attr recordingmode vector
attr source "warmup(atomic(constant0(packetPushEnded) + sum(packetLength(packetPushStarted)) - sum(packetLength(packetPulled)) - sum(packetLength(packetRemoved)) - sum(packetLength(packetDropped))))"
attr title "queue bit length"
attr unit b
vector 58 MultiCell.ue11.cellularNic.channelModel[0] distance:vector ETV
attr recordingmode vector
attr source distance
attr title "distance between UE and serving base station"
attr unit meters
vector 59 MultiCell.ue12.cellularNic.channelModel[0] distance:vector ETV
attr recordingmode vector
attr source distance
attr title "distance between UE and serving base station"
attr unit meters
vector 60 MultiCell.ue21.cellularNic.channelModel[0] distance:vector ETV
attr recordingmode vector
attr source distance
attr title "distance between UE and serving base station"
attr unit meters
vector 61 MultiCell.ue22.cellularNic.channelModel[0] distance:vector ETV
attr recordingmode vector
attr source distance
attr title "distance between UE and serving base station"
attr unit meters
vector 62 MultiCell.eNodeB2.x2ppp[0].ppp rxPkOk:vector(packetBytes) ETV
attr interpolationmode none
attr recordingmode vector(packetBytes)
attr source rxPkOk
attr title "packets received OK, packetBytes"
vector 63 MultiCell.eNodeB2.x2ppp[0].ppp passedUpPk:vector(packetBytes) ETV
attr interpolationmode none
attr recordingmode vector(packetBytes)
attr source packetSentToUpper
attr title "packets passed to higher layer, packetBytes"
vector 64 MultiCell.eNodeB1.x2ppp[0].ppp rxPkOk:vector(packetBytes) ETV
attr interpolationmode none
attr recordingmode vector(packetBytes)
attr source rxPkOk
attr title "packets received OK, packetBytes"
vector 65 MultiCell.eNodeB1.x2ppp[0].ppp passedUpPk:vector(packetBytes) ETV
attr interpolationmode none
attr recordingmode vector(packetBytes)
attr source packetSentToUpper
attr title "packets passed to higher layer, packetBytes"
vector 66 MultiCell.eNodeB2.sctp "Throughput of Association 28" ETV
vector 67 MultiCell.eNodeB2.sctp "Peer Rwnd 28" ETV
vector 68 MultiCell.eNodeB2.sctp "Fast Recovery State 29:10.0.4.1" ETV
vector 69 MultiCell.eNodeB2.sctp "Fast Recovery State 29:10.0.1.2" ETV
vector 70 MultiCell.eNodeB2.sctp "Fast Recovery State 29:10.0.5.1" ETV
vector 71 MultiCell.eNodeB2.sctp "Fast Recovery State 29:10.0.6.1" ETV
vector 72 MultiCell.eNodeB1.sctp "Throughput of Association 27" ETV
vector 73 MultiCell.eNodeB1.sctp "Peer Rwnd 27" ETV
vector 74 MultiCell.eNodeB1.sctp "Fast Recovery State 30:10.0.4.2" ETV
vector 75 MultiCell.eNodeB1.sctp "Fast Recovery State 30:10.0.2.2" ETV
vector 76 MultiCell.eNodeB1.sctp "Fast Recovery State 30:10.0.5.2" ETV
vector 77 MultiCell.eNodeB1.sctp "Fast Recovery State 30:10.0.7.1" ETV
vector 78 MultiCell.eNodeB1.sctp "Peer Rwnd 4" ETV
vector 79 MultiCell.eNodeB1.sctp "Fast Recovery State 4:10.0.4.2" ETV
vector 80 MultiCell.eNodeB1.sctp "Fast Recovery State 4:10.0.2.2" ETV
vector 81 MultiCell.eNodeB1.sctp "Fast Recovery State 4:10.0.7.1" ETV
vector 82 MultiCell.eNodeB2.sctp "Peer Rwnd 8" ETV
vector 83 MultiCell.eNodeB2.sctp "Fast Recovery State 8:10.0.4.1" ETV
vector 84 MultiCell.eNodeB2.sctp "Fast Recovery State 8:10.0.1.2" ETV
vector 85 MultiCell.eNodeB2.sctp "Fast Recovery State 8:10.0.6.1" ETV
vector 86 MultiCell.eNodeB2.sctp "Slow Start Threshold 29:10.0.1.2" ETV
vector 87 MultiCell.eNodeB2.sctp "Congestion Window 29:10.0.1.2" ETV
vector 88 MultiCell.eNodeB2.sctp "Bandwidth 29:10.0.1.2" ETV
vector 89 MultiCell.eNodeB2.sctp "HB Sent 29:10.0.1.2" ETV
vector 90 MultiCell.eNodeB2.sctp "RTO 29:10.0.1.2" ETV
vector 91 MultiCell.eNodeB2.sctp "Slow Start Threshold 29:10.0.4.1" ETV
vector 92 MultiCell.eNodeB2.sctp "Congestion Window 29:10.0.4.1" ETV
vector 93 MultiCell.eNodeB2.sctp "Bandwidth 29:10.0.4.1" ETV
vector 94 MultiCell.eNodeB2.sctp "HB Sent 29:10.0.4.1" ETV
vector 95 MultiCell.eNodeB2.sctp "RTO 29:10.0.4.1" ETV
vector 96 MultiCell.eNodeB2.sctp "Slow Start Threshold 29:10.0.5.1" ETV
vector 97 MultiCell.eNodeB2.sctp "Congestion Window 29:10.0.5.1" ETV
vector 98 MultiCell.eNodeB2.sctp "Bandwidth 29:10.0.5.1" ETV
vector 99 MultiCell.eNodeB2.sctp "RTO 29:10.0.5.1" ETV
vector 100 MultiCell.eNodeB2.sctp "Slow Start Threshold 29:10.0.6.1" ETV
vector 101 MultiCell.eNodeB2.sctp "Congestion Window 29:10.0.6.1" ETV
vector 102 MultiCell.eNodeB2.sctp "Bandwidth 29:10.0.6.1" ETV
vector 103 MultiCell.eNodeB2.sctp "HB Sent 29:10.0.6.1" ETV
vector 104 MultiCell.eNodeB2.sctp "RTO 29:10.0.6.1" ETV
vector 105 MultiCell.eNodeB1.sctp "Slow Start Threshold 30:10.0.2.2" ETV
vector 106 MultiCell.eNodeB1.sctp "Congestion Window 30:10.0.2.2" ETV
vector 107 MultiCell.eNodeB1.sctp "Bandwidth 30:10.0.2.2" ETV
vector 108 MultiCell.eNodeB1.sctp "HB Sent 30:10.0.2.2" ETV
vector 109 MultiCell.eNodeB1.sctp "RTO 30:10.0.2.2" ETV
vector 110 MultiCell.eNodeB1.sctp "Slow Start Threshold 30:10.0.4.2" ETV
vector 111 MultiCell.eNodeB1.sctp "Congestion Window 30:10.0.4.2" ETV
vector 112 MultiCell.eNodeB1.sctp "Bandwidth 30:10.0.4.2" ETV
vector 113 MultiCell.eNodeB1.sctp "HB Sent 30:10.0.4.2" ETV
vector 114 MultiCell.eNodeB1.sctp "RTO 30:10.0.4.2" ETV
vector 115 MultiCell.eNodeB1.sctp "Slow Start Threshold 30:10.0.5.2" ETV
vector 116 MultiCell.eNodeB1.sctp "Congestion Window 30:10.0.5.2" ETV
vector 117 MultiCell.eNodeB1.sctp "Bandwidth 30:10.0.5.2" ETV
vector 118 MultiCell.eNodeB1.sctp "RTO 30:10.0.5.2" ETV
vector 119 MultiCell.eNodeB1.sctp "Slow Start Threshold 30:10.0.7.1" ETV
vector 120 MultiCell.eNodeB1.sctp "Congestion Window 30:10.0.7.1" ETV
vector 121 MultiCell.eNodeB1.sctp "Bandwidth 30:10.0.7.1" ETV
vector 122 MultiCell.eNodeB1.sctp "HB Sent 30:10.0.7.1" ETV
vector 123 MultiCell.eNodeB1.sctp "RTO 30:10.0.7.1" ETV
vector 124 MultiCell.eNodeB1.sctp "HB ACK Sent 4:10.0.5.2" ETV
vector 125 MultiCell.eNodeB1.sctp "HB Received 4:10.0.5.2" ETV
vector 126 MultiCell.eNodeB2.sctp "HB ACK Sent 8:10.0.5.1" ETV
vector 127 MultiCell.eNodeB2.sctp "HB Received 8:10.0.5.1" ETV
vector 128 MultiCell.eNodeB1.sctp "Slow Start Threshold 4:10.0.2.2" ETV
vector 129 MultiCell.eNodeB1.sctp "Congestion Window 4:10.0.2.2" ETV
vector 130 MultiCell.eNodeB1.sctp "Bandwidth 4:10.0.2.2" ETV
vector 131 MultiCell.eNodeB1.sctp "HB Sent 4:10.0.2.2" ETV
vector 132 MultiCell.eNodeB1.sctp "RTO 4:10.0.2.2" ETV
vector 133 MultiCell.eNodeB1.sctp "Slow Start Threshold 4:10.0.4.2" ETV
vector 134 MultiCell.eNodeB1.sctp "Congestion Window 4:10.0.4.2" ETV
vector 135 MultiCell.eNodeB1.sctp "Bandwidth 4:10.0.4.2" ETV
vector 136 MultiCell.eNodeB1.sctp "HB Sent 4:10.0.4.2" ETV
vector 137 MultiCell.eNodeB1.sctp "RTO 4:10.0.4.2" ETV
vector 138 MultiCell.eNodeB1.sctp "Slow Start Threshold 4:10.0.5.2" ETV
vector 139 MultiCell.eNodeB1.sctp "Congestion Window 4:10.0.5.2" ETV
vector 140 MultiCell.eNodeB1.sctp "Bandwidth 4:10.0.5.2" ETV
vector 141 MultiCell.eNodeB1.sctp "RTO 4:10.0.5.2" ETV
vector 142 MultiCell.eNodeB1.sctp "Slow Start Threshold 4:10.0.7.1" ETV
vector 143 MultiCell.eNodeB1.sctp "Congestion Window 4:10.0.7.1" ETV
vector 144 MultiCell.eNodeB1.sctp "Bandwidth 4:10.0.7.1" ETV
vector 145 MultiCell.eNodeB1.sctp "HB Sent 4:10.0.7.1" ETV
vector 146 MultiCell.eNodeB1.sctp "RTO 4:10.0.7.1" ETV
vector 147 MultiCell.eNodeB2.sctp "Slow Start Threshold 8:10.0.1.2" ETV
vector 148 MultiCell.eNodeB2.sctp "Congestion Window 8:10.0.1.2" ETV
vector 149 MultiCell.eNodeB2.sctp "Bandwidth 8:10.0.1.2" ETV
vector 150 MultiCell.eNodeB2.sctp "HB Sent 8:10.0.1.2" ETV
vector 151 MultiCell.eNodeB2.sctp "RTO 8:10.0.1.2" ETV
vector 152 MultiCell.eNodeB2.sctp "Slow Start Threshold 8:10.0.4.1" ETV
vector 153 MultiCell.eNodeB2.sctp "Congestion Window 8:10.0.4.1" ETV
vector 154 MultiCell.eNodeB2.sctp "Bandwidth 8:10.0.4.1" ETV
vector 155 MultiCell.eNodeB2.sctp "HB Sent 8:10.0.4.1" ETV
vector 156 MultiCell.eNodeB2.sctp "RTO 8:10.0.4.1" ETV
vector 157 MultiCell.eNodeB2.sctp "Slow Start Threshold 8:10.0.5.1" ETV
vector 158 MultiCell.eNodeB2.sctp "Congestion Window 8:10.0.5.1" ETV
vector 159 MultiCell.eNodeB2.sctp "Bandwidth 8:10.0.5.1" ETV
vector 160 MultiCell.eNodeB2.sctp "RTO 8:10.0.5.1" ETV
vector 161 MultiCell.eNodeB2.sctp "Slow Start Threshold 8:10.0.6.1" ETV
vector 162 MultiCell.eNodeB2.sctp "Congestion Window 8:10.0.6.1" ETV
vector 163 MultiCell.eNodeB2.sctp "Bandwidth 8:10.0.6.1" ETV
vector 164 MultiCell.eNodeB2.sctp "HB Sent 8:10.0.6.1" ETV
vector 165 MultiCell.eNodeB2.sctp "RTO 8:10.0.6.1" ETV
vector 166 MultiCell.eNodeB1.sctp "HB ACK Received 30:10.0.5.2" ETV
vector 167 MultiCell.eNodeB1.sctp "RTT 30:10.0.5.2" ETV
vector 168 MultiCell.eNodeB2.sctp "HB ACK Received 29:10.0.5.1" ETV
vector 169 MultiCell.eNodeB2.sctp "RTT 29:10.0.5.1" ETV
vector 170 MultiCell.eNodeB1.sctp "HB ACK Sent 30:10.0.5.2" ETV
vector 171 MultiCell.eNodeB1.sctp "HB Received 30:10.0.5.2" ETV
vector 172 MultiCell.eNodeB2.sctp "HB ACK Sent 29:10.0.5.1" ETV
vector 173 MultiCell.eNodeB2.sctp "HB Received 29:10.0.5.1" ETV
vector 174 MultiCell.eNodeB1.sctp "HB ACK Received 4:10.0.5.2" ETV
vector 175 MultiCell.eNodeB1.sctp "RTT 4:10.0.5.2" ETV
vector 176 MultiCell.eNodeB2.sctp "HB ACK Received 8:10.0.5.1" ETV
vector 177 MultiCell.eNodeB2.sctp "RTT 8:10.0.5.1" ETV
vector 178 MultiCell.eNodeB1.cellularNic.mac avgServedBlocksUl:vector ETV
attr recordingmode vector
attr source avgServedBlocksUl
attr title "Avg Served Blocks Ul"
attr unit blocks
vector 179 MultiCell.eNodeB1.cellularNic.mac avgServedBlocksDl:vector ETV
attr recordingmode vector
attr source avgServedBlocksDl
attr title "Avg Served Blocks Dl"
attr unit blocks
vector 180 MultiCell.eNodeB2.cellularNic.mac avgServedBlocksUl:vector ETV
attr recordingmode vector
attr source avgServedBlocksUl
attr title "Avg Served Blocks Ul"
attr unit blocks
vector 181 MultiCell.eNodeB2.cellularNic.mac avgServedBlocksDl:vector ETV
attr recordingmode vector
attr source avgServedBlocksDl
attr title "Avg Served Blocks Dl"
attr unit blocks
vector 182 MultiCell.ue11.cellularNic.channelModel[0] measuredSinrUl:vector ETV
attr recordingmode vector
attr source measuredSinrUl
attr title "SINR measured at feedback computation, UL"
attr unit dB
vector 183 MultiCell.ue11.cellularNic.channelModel[0] measuredSinrDl:vector ETV
attr recordingmode vector
attr source measuredSinrDl
attr title "SINR measured at feedback computation, DL"
attr unit dB
vector 184 MultiCell.eNodeB1.cellularNic.mac receivedPacketFromLowerLayer:vector(packetBytes) ETV
attr interpolationmode none
attr recordingmode vector(packetBytes)
attr source receivedPacketFromLowerLayer
vector 185 MultiCell.ue12.cellularNic.channelModel[0] measuredSinrUl:vector ETV
attr recordingmode vector
attr source measuredSinrUl
attr title "SINR measured at feedback computation, UL"
attr unit dB
vector 186 MultiCell.ue12.cellularNic.channelModel[0] measuredSinrDl:vector ETV
attr recordingmode vector
attr source measuredSinrDl
attr title "SINR measured at feedback computation, DL"
attr unit dB
vector 187 MultiCell.ue21.cellularNic.channelModel[0] measuredSinrUl:vector ETV
attr recordingmode vector
attr source measuredSinrUl
attr title "SINR measured at feedback computation, UL"
attr unit dB
vector 188 MultiCell.ue21.cellularNic.channelModel[0] measuredSinrDl:vector ETV
attr recordingmode vector
attr source measuredSinrDl
attr title "SINR measured at feedback computation, DL"
attr unit dB
vector 189 MultiCell.eNodeB2.cellularNic.mac receivedPacketFromLowerLayer:vector(packetBytes) ETV
attr interpolationmode none
attr recordingmode vector(packetBytes)
attr source receivedPacketFromLowerLayer
vector 190 MultiCell.ue22.cellularNic.channelModel[0] measuredSinrUl:vector ETV
attr recordingmode vector
attr source measuredSinrUl
attr title "SINR measured at feedback computation, UL"
attr unit dB
vector 191 MultiCell.ue22.cellularNic.channelModel[0] measuredSinrDl:vector ETV
attr recordingmode vector
attr source measuredSinrDl
attr title "SINR measured at feedback computation, DL"
attr unit dB
vector 192 MultiCell.eNodeB1.sctp "SendQueue of Association 30" ETV
vector 193 MultiCell.eNodeB1.sctp "TSN Sent 30:10.0.5.2" ETV
vector 194 MultiCell.eNodeB1.sctp "Outstanding Bytes 30:10.0.5.2" ETV
vector 195 MultiCell.eNodeB1.sctp "Outstanding Bytes 27:Total" ETV
vector 196 MultiCell.eNodeB1.sctp "Queued Sent Bytes 30:10.0.5.2" ETV
vector 197 MultiCell.eNodeB1.sctp "Queued Sent Bytes 27:Total" ETV
vector 198 MultiCell.eNodeB1.x2ppp[0].queue incomingDataRate:vector ETV
attr interpolationmode linear
attr recordingmode vector
attr source throughput(packetPushStarted)
attr title "incoming datarate"
attr unit bps
vector 199 MultiCell.eNodeB1.x2ppp[0].queue outgoingDataRate:vector ETV
attr interpolationmode linear
attr recordingmode vector
attr source throughput(packetPulled)
attr title "outgoing datarate"
attr unit bps
vector 200 MultiCell.eNodeB2.sctp "TSN Received 8:10.0.5.1" ETV
vector 201 MultiCell.eNodeB2.sctp "Stream 0 Throughput" ETV
vector 202 MultiCell.eNodeB2.sctp "Queued Received Bytes 8:Total" ETV
vector 203 MultiCell.eNodeB2.sctp "Advertised Receiver Window 8" ETV
vector 204 MultiCell.eNodeB2.sctp "Number of Total Gap Blocks Stored 8" ETV
vector 205 MultiCell.eNodeB2.sctp "Number of Revokable Gap Blocks Stored 8" ETV
vector 206 MultiCell.eNodeB2.sctp "Number of Non-Revokable Gap Blocks Stored 8" ETV
vector 207 MultiCell.eNodeB2.sctp "Number of Duplicate TSNs Stored 8" ETV
vector 208 MultiCell.eNodeB2.sctp "Length of SACK Sent 8" ETV
vector 209 MultiCell.eNodeB2.sctp "Number of Revokable Gap Blocks Sent 8" ETV
vector 210 MultiCell.eNodeB2.sctp "Number of Non-Revokable Gap Blocks Sent 8" ETV
vector 211 MultiCell.eNodeB2.sctp "Number of Duplicate TSNs Sent 8" ETV
vector 212 MultiCell.eNodeB2.sctp "End to End Delay of Association 8" ETV
vector 213 MultiCell.eNodeB2.x2ppp[0].queue incomingDataRate:vector ETV
attr interpolationmode linear
attr recordingmode vector
attr source throughput(packetPushStarted)
attr title "incoming datarate"
attr unit bps
vector 214 MultiCell.eNodeB2.x2ppp[0].queue outgoingDataRate:vector ETV
attr interpolationmode linear
attr recordingmode vector
attr source throughput(packetPulled)
attr title "outgoing datarate"
attr unit bps
vector 215 MultiCell.eNodeB2.x2App[0].client packetReceived:vector(packetBytes) ETV
attr interpolationmode none
attr recordingmode vector(packetBytes)
attr source packetReceived
attr title "packets received, packetBytes"
vector 216 MultiCell.eNodeB1.sctp "Number of Gap Blocks in Last SACK of Association 30" ETV
vector 217 MultiCell.eNodeB1.sctp "Number of Revokable Gap Blocks in SACK 27" ETV
vector 218 MultiCell.eNodeB1.sctp "Number of Non-Revokable Gap Blocks in SACK 27" ETV
vector 219 MultiCell.eNodeB1.sctp "TSN Acked CumAck 30:10.0.5.2" ETV
vector 220 MultiCell.eNodeB1.sctp "Number of Gap Acked Chunks in Last SACK 30:10.0.2.2" ETV
vector 221 MultiCell.eNodeB1.sctp "Number of Non-Revokable Gap Acked Chunks in Last SACK 30:10.0.2.2" ETV
vector 222 MultiCell.eNodeB1.sctp "Number of Gap Missed Chunks in Last SACK 30:10.0.2.2" ETV
vector 223 MultiCell.eNodeB1.sctp "Number of Gap Acked Chunks in Last SACK 30:10.0.4.2" ETV
vector 224 MultiCell.eNodeB1.sctp "Number of Non-Revokable Gap Acked Chunks in Last SACK 30:10.0.4.2" ETV
vector 225 MultiCell.eNodeB1.sctp "Number of Gap Missed Chunks in Last SACK 30:10.0.4.2" ETV
vector 226 MultiCell.eNodeB1.sctp "Number of Gap Acked Chunks in Last SACK 30:10.0.5.2" ETV
vector 227 MultiCell.eNodeB1.sctp "Number of Non-Revokable Gap Acked Chunks in Last SACK 30:10.0.5.2" ETV
vector 228 MultiCell.eNodeB1.sctp "Number of Gap Missed Chunks in Last SACK 30:10.0.5.2" ETV
vector 229 MultiCell.eNodeB1.sctp "Number of Gap Acked Chunks in Last SACK 30:10.0.7.1" ETV
vector 230 MultiCell.eNodeB1.sctp "Number of Non-Revokable Gap Acked Chunks in Last SACK 30:10.0.7.1" ETV
vector 231 MultiCell.eNodeB1.sctp "Number of Gap Missed Chunks in Last SACK 30:10.0.7.1" ETV
vector 232 MultiCell.eNodeB1.sctp "Arwnd in Last SACK 27" ETV
vector 233 MultiCell.eNodeB1.sctp "TSN PseudoCumAck 30:10.0.5.2" ETV
vector 234 MultiCell.eNodeB1.sctp "TSN RTXPseudoCumAck 30:10.0.5.2" ETV
vector 235 MultiCell.eNodeB1.sctp "Partial Bytes Acked 30:10.0.5.2" ETV
vector 236 MultiCell.eNodeB2.sctp "SendQueue of Association 29" ETV
vector 237 MultiCell.eNodeB2.sctp "TSN Sent 29:10.0.5.1" ETV
vector 238 MultiCell.eNodeB2.sctp "Outstanding Bytes 29:10.0.5.1" ETV
vector 239 MultiCell.eNodeB2.sctp "Outstanding Bytes 28:Total" ETV
vector 240 MultiCell.eNodeB2.sctp "Queued Sent Bytes 29:10.0.5.1" ETV
vector 241 MultiCell.eNodeB2.sctp "Queued Sent Bytes 28:Total" ETV
vector 242 MultiCell.eNodeB1.sctp "TSN Received 4:10.0.5.2" ETV
vector 243 MultiCell.eNodeB1.sctp "Stream 0 Throughput" ETV
vector 244 MultiCell.eNodeB1.sctp "Queued Received Bytes 4:Total" ETV
vector 245 MultiCell.eNodeB1.sctp "Advertised Receiver Window 4" ETV
vector 246 MultiCell.eNodeB1.sctp "Number of Total Gap Blocks Stored 4" ETV
vector 247 MultiCell.eNodeB1.sctp "Number of Revokable Gap Blocks Stored 4" ETV
vector 248 MultiCell.eNodeB1.sctp "Number of Non-Revokable Gap Blocks Stored 4" ETV
vector 249 MultiCell.eNodeB1.sctp "Number of Duplicate TSNs Stored 4" ETV
vector 250 MultiCell.eNodeB1.sctp "Length of SACK Sent 4" ETV
vector 251 MultiCell.eNodeB1.sctp "Number of Revokable Gap Blocks Sent 4" ETV
vector 252 MultiCell.eNodeB1.sctp "Number of Non-Revokable Gap Blocks Sent 4" ETV
vector 253 MultiCell.eNodeB1.sctp "Number of Duplicate TSNs Sent 4" ETV
vector 254 MultiCell.eNodeB1.sctp "End to End Delay of Association 4" ETV
vector 255 MultiCell.eNodeB1.x2App[0].client packetReceived:vector(packetBytes) ETV
attr interpolationmode none
attr recordingmode vector(packetBytes)
attr source packetReceived
attr title "packets received, packetBytes"
vector 256 MultiCell.eNodeB2.sctp "Number of Gap Blocks in Last SACK of Association 29" ETV
vector 257 MultiCell.eNodeB2.sctp "Number of Revokable Gap Blocks in SACK 28" ETV
vector 258 MultiCell.eNodeB2.sctp "Number of Non-Revokable Gap Blocks in SACK 28" ETV
vector 259 MultiCell.eNodeB2.sctp "TSN Acked CumAck 29:10.0.5.1" ETV
vector 260 MultiCell.eNodeB2.sctp "Number of Gap Acked Chunks in Last SACK 29:10.0.1.2" ETV
vector 261 MultiCell.eNodeB2.sctp "Number of Non-Revokable Gap Acked Chunks in Last SACK 29:10.0.1.2" ETV
vector 262 MultiCell.eNodeB2.sctp "Number of Gap Missed Chunks in Last SACK 29:10.0.1.2" ETV
vector 263 MultiCell.eNodeB2.sctp "Number of Gap Acked Chunks in Last SACK 29:10.0.4.1" ETV
vector 264 MultiCell.eNodeB2.sctp "Number of Non-Revokable Gap Acked Chunks in Last SACK 29:10.0.4.1" ETV
vector 265 MultiCell.eNodeB2.sctp "Number of Gap Missed Chunks in Last SACK 29:10.0.4.1" ETV
vector 266 MultiCell.eNodeB2.sctp "Number of Gap Acked Chunks in Last SACK 29:10.0.5.1" ETV
vector 267 MultiCell.eNodeB2.sctp "Number of Non-Revokable Gap Acked Chunks in Last SACK 29:10.0.5.1" ETV
vector 268 MultiCell.eNodeB2.sctp "Number of Gap Missed Chunks in Last SACK 29:10.0.5.1" ETV
vector 269 MultiCell.eNodeB2.sctp "Number of Gap Acked Chunks in Last SACK 29:10.0.6.1" ETV
vector 270 MultiCell.eNodeB2.sctp "Number of Non-Revokable Gap Acked Chunks in Last SACK 29:10.0.6.1" ETV
vector 271 MultiCell.eNodeB2.sctp "Number of Gap Missed Chunks in Last SACK 29:10.0.6.1" ETV
vector 272 MultiCell.eNodeB2.sctp "Arwnd in Last SACK 28" ETV
vector 273 MultiCell.eNodeB2.sctp "TSN PseudoCumAck 29:10.0.5.1" ETV
vector 274 MultiCell.eNodeB2.sctp "TSN RTXPseudoCumAck 29:10.0.5.1" ETV
vector 275 MultiCell.eNodeB2.sctp "Partial Bytes Acked 29:10.0.5.1" ETV
0	33809 8 0 0 0 0 1 0 0 0 0
1	33817 8 0 0 0 0 1 0 0 0 0
2	33825 8 0 0 0 0 1 0 0 0 0
3	33833 8 0 0 0 0 1 0 0 0 0
4	33841 8 0 0 0 0 1 0 0 0 0
5	33849 8 0 0 0 0 1 0 0 0 0
6	33857 8 0 0 0 0 1 0 0 0 0
7	33865 8 0 0 0 0 1 0 0 0 0
8	33873 8 0 0 0 0 1 0 0 0 0
9	33881 8 0 0 0 0 1 0 0 0 0
10	33889 9 0 0 0 0 1 0 0 0 0
11	33898 9 0 0 0 0 1 0 0 0 0
12	33907 9 0 0 0 0 1 0 0 0 0
13	33916 873 0 56486 0 5.2500101508 41 0 1 20 20
14	34789 9 0 0 0 0 1 0 0 0 0
15	34798 9 0 0 0 0 1 0 0 0 0
16	34807 9 0 0 0 0 1 0 0 0 0
17	34816 9 0 0 0 0 1 0 0 0 0
18	34825 9 0 0 0 0 1 0 0 0 0
19	34834 873 0 55947 0 5.2000101508 41 0 1 20 20
20	35707 9 0 0 0 0 1 0 0 0 0
21	35716 9 0 0 0 0 1 0 0 0 0
22	35725 9 0 0 0 0 1 0 0 0 0
23	35734 9 0 0 0 0 1 0 0 0 0
24	35743 9 0 0 0 0 1 0 0 0 0
25	35752 9 0 0 0 0 1 0 0 0 0
26	35761 9 0 0 0 0 1 0 0 0 0
27	35770 9 0 0 0 0 1 0 0 0 0
28	35779 9 0 0 0 0 1 0 0 0 0
29	35788 9 0 0 0 0 1 0 0 0 0
30	35797 9 0 0 0 0 1 0 0 0 0
31	35806 9 0 0 0 0 1 0 0 0 0
32	35815 9 0 0 0 0 1 0 0 0 0
33	35824 9 0 0 0 0 1 0 0 0 0
34	35833 9 0 0 0 0 1 0 0 0 0
35	35842 9 0 0 0 0 1 0 0 0 0
36	35851 28 0 22191 0 2.05001 2 1 2 3 5
37	35879 28 0 54325 0 5.05001 2 1 2 3 5
38	35907 9 0 0 0 0 1 2 2 2 4
39	35916 9 0 0 0 0 1 2 2 2 4
40	35925 79 14 55950 0 5.2000102008 3 0 0.16799914313717 0.17674914313717 0.028300274594823
41	36004 79 19 56489 0 5.2500102008 3 0 0.16390162344991 0.17265162344991 0.026940304669517
42	36083 89 22 54334 0 5.0500101068 3 0 0.16390163096536 0.17856829763203 0.027078855744217
43	36172 10 22 22 0 0 1 0 0 0 0
44	36182 89 23 53791 0 5.0000101068 3 0 0.16799915103309 0.18266581769976 0.02843882585895
45	36271 10 23 23 0 0 1 0 0 0 0
46	36281 461 30 56485 0 5.2500101068 20 288 1376 9728 5967872
47	36742 498 30 56485 0 5.2500101068 20 0 1.7e-07 9.732e-07 9.866128e-14
48	37240 462 30 56485 0 5.2500101068 20 288 1376 9728 5967872
49	37702 443 30 56485 0 5.2500101068 20 43 179 1356 111252
50	38145 682 30 56485 0 5.2500101068 32 0 4 36 80
51	38827 726 30 56485 0 5.2500101068 32 0 1536 13440 11243520
52	39553 461 31 55946 0 5.2000101068 20 288 1376 9728 5967872
53	40014 498 31 55946 0 5.2000101068 20 0 1.7e-07 9.732e-07 9.866128e-14
54	40512 462 31 55946 0 5.2000101068 20 288 1376 9728 5967872
55	40974 443 31 55946 0 5.2000101068 20 43 179 1356 111252
56	41417 682 31 55946 0 5.2000101068 32 0 4 36 80
57	42099 726 31 55946 0 5.2000101068 32 0 1536 13440 11243520
58	42825 596 33 118016 0 11 24 30 152.97058540778 1813.5435106244 174800
59	43421 608 34 118017 0 11 24 30 133.41664064126 1573.0687124653 125200
60	44029 650 35 118018 0 11 24 232.63941646845 320.44677724228 6637.0343245287 1881686.8216769
61	44679 650 36 118019 0 11 24 210.79643163181 309.55531834849 6244.2209997636 1683115.5684785
62	45329 467 44 56487 0.0000001292 5.2500102008 20 43 179 1356 111252
63	45796 467 44 56487 0.0000001292 5.2500102008 20 36 172 1216 93248
64	46263 467 45 55948 0.0000001292 5.2000102008 20 43 179 1356 111252
65	46730 467 45 55948 0.0000001292 5.2000102008 20 36 172 1216 93248
66	47197 21 48 48 0.0000001292 0.0000001292 1 0 0 0 0
67	47218 81 48 56489 0.0000001292 5.2500102008 3 65520 65535 196590 12882542850
68	47299 21 48 48 0.0000001292 0.0000001292 1 0 0 0 0
69	47320 21 48 48 0.0000001292 0.0000001292 1 0 0 0 0
70	47341 21 48 48 0.0000001292 0.0000001292 1 0 0 0 0
71	47362 21 48 48 0.0000001292 0.0000001292 1 0 0 0 0
72	47383 21 49 49 0.0000001292 0.0000001292 1 0 0 0 0
73	47404 81 49 55950 0.0000001292 5.2000102008 3 65520 65535 196590 12882542850
74	47485 21 49 49 0.0000001292 0.0000001292 1 0 0 0 0
75	47506 21 49 49 0.0000001292 0.0000001292 1 0 0 0 0
76	47527 21 49 49 0.0000001292 0.0000001292 1 0 0 0 0
77	47548 21 49 49 0.0000001292 0.0000001292 1 0 0 0 0
78	47569 25 60 60 0.0000003224 0.0000003224 1 65535 65535 65535 4294836225
79	47594 21 60 60 0.0000003224 0.0000003224 1 0 0 0 0
80	47615 21 60 60 0.0000003224 0.0000003224 1 0 0 0 0
81	47636 21 60 60 0.0000003224 0.0000003224 1 0 0 0 0
82	47657 25 61 61 0.0000003224 0.0000003224 1 65535 65535 65535 4294836225
83	47682 21 61 61 0.0000003224 0.0000003224 1 0 0 0 0
84	47703 21 61 61 0.0000003224 0.0000003224 1 0 0 0 0
85	47724 21 61 61 0.0000003224 0.0000003224 1 0 0 0 0
86	47745 25 72 72 0.0000004708 0.0000004708 1 65535 65535 65535 4294836225
87	47770 24 72 72 0.0000004708 0.0000004708 1 8940 8940 8940 79923600
88	47794 26 72 72 0.0000004708 0.0000004708 1 0.3725 0.3725 0.3725 0.13875625
89	47820 21 72 72 0.0000004708 0.0000004708 1 1 1 1 1
90	47841 21 72 72 0.0000004708 0.0000004708 1 3 3 3 9
91	47862 25 72 72 0.0000004708 0.0000004708 1 65535 65535 65535 4294836225
92	47887 24 72 72 0.0000004708 0.0000004708 1 8940 8940 8940 79923600
93	47911 26 72 72 0.0000004708 0.0000004708 1 0.3725 0.3725 0.3725 0.13875625
94	47937 21 72 72 0.0000004708 0.0000004708 1 1 1 1 1
95	47958 21 72 72 0.0000004708 0.0000004708 1 3 3 3 9
96	47979 71 72 65059 0.0000004708 6.05001 3 65535 65535 196605 12884508675
97	48050 68 72 65059 0.0000004708 6.05001 3 8940 8940 26820 239770800
98	48118 69 72 65059 0.0000004708 6.05001 3 0.3725 inf inf inf
99	48187 91 72 56489 0.0000004708 5.2500102008 4 1 3 6 12
100	48278 26 72 72 0.0000004708 0.0000004708 1 65535 65535 65535 4294836225
101	48304 25 72 72 0.0000004708 0.0000004708 1 8940 8940 8940 79923600
102	48329 27 72 72 0.0000004708 0.0000004708 1 0.3725 0.3725 0.3725 0.13875625
103	48356 22 72 72 0.0000004708 0.0000004708 1 1 1 1 1
104	48378 22 72 72 0.0000004708 0.0000004708 1 3 3 3 9
105	48400 26 73 73 0.0000004708 0.0000004708 1 65535 65535 65535 4294836225
106	48426 25 73 73 0.0000004708 0.0000004708 1 8940 8940 8940 79923600
107	48451 27 73 73 0.0000004708 0.0000004708 1 0.3725 0.3725 0.3725 0.13875625
108	48478 22 73 73 0.0000004708 0.0000004708 1 1 1 1 1
109	48500 22 73 73 0.0000004708 0.0000004708 1 3 3 3 9
110	48522 26 73 73 0.0000004708 0.0000004708 1 65535 65535 65535 4294836225
111	48548 25 73 73 0.0000004708 0.0000004708 1 8940 8940 8940 79923600
112	48573 27 73 73 0.0000004708 0.0000004708 1 0.3725 0.3725 0.3725 0.13875625
113	48600 22 73 73 0.0000004708 0.0000004708 1 1 1 1 1
114	48622 22 73 73 0.0000004708 0.0000004708 1 3 3 3 9
115	48644 74 73 64518 0.0000004708 6.00001 3 65535 65535 196605 12884508675
116	48718 71 73 64518 0.0000004708 6.00001 3 8940 8940 26820 239770800
117	48789 72 73 64518 0.0000004708 6.00001 3 0.3725 inf inf inf
118	48861 95 73 55950 0.0000004708 5.2000102008 4 1 3 6 12
119	48956 26 73 73 0.0000004708 0.0000004708 1 65535 65535 65535 4294836225
120	48982 25 73 73 0.0000004708 0.0000004708 1 8940 8940 8940 79923600
121	49007 27 73 73 0.0000004708 0.0000004708 1 0.3725 0.3725 0.3725 0.13875625
122	49034 22 73 73 0.0000004708 0.0000004708 1 1 1 1 1
123	49056 22 73 73 0.0000004708 0.0000004708 1 3 3 3 9
124	49078 69 104 128 0.0000005648 0.0000006528 3 1 3 6 14
125	49147 69 104 128 0.0000005648 0.0000006528 3 1 3 6 14
126	49216 69 105 129 0.0000005648 0.0000006528 3 1 3 6 14
127	49285 69 105 129 0.0000005648 0.0000006528 3 1 3 6 14
128	49354 27 140 140 0.0000006872 0.0000006872 1 65535 65535 65535 4294836225
129	49381 26 140 140 0.0000006872 0.0000006872 1 8940 8940 8940 79923600
130	49407 28 140 140 0.0000006872 0.0000006872 1 0.3725 0.3725 0.3725 0.13875625
131	49435 23 140 140 0.0000006872 0.0000006872 1 1 1 1 1
132	49458 23 140 140 0.0000006872 0.0000006872 1 3 3 3 9
133	49481 27 140 140 0.0000006872 0.0000006872 1 65535 65535 65535 4294836225
134	49508 26 140 140 0.0000006872 0.0000006872 1 8940 8940 8940 79923600
135	49534 28 140 140 0.0000006872 0.0000006872 1 0.3725 0.3725 0.3725 0.13875625
136	49562 23 140 140 0.0000006872 0.0000006872 1 1 1 1 1
137	49585 23 140 140 0.0000006872 0.0000006872 1 3 3 3 9
138	49608 27 140 140 0.0000006872 0.0000006872 1 65535 65535 65535 4294836225
139	49635 26 140 140 0.0000006872 0.0000006872 1 8940 8940 8940 79923600
140	49661 28 140 140 0.0000006872 0.0000006872 1 0.3725 0.3725 0.3725 0.13875625
141	49689 46 140 222 0.0000006872 0.0000009952 2 1 3 4 10
142	49735 27 140 140 0.0000006872 0.0000006872 1 65535 65535 65535 4294836225
143	49762 26 140 140 0.0000006872 0.0000006872 1 8940 8940 8940 79923600
144	49788 28 140 140 0.0000006872 0.0000006872 1 0.3725 0.3725 0.3725 0.13875625
145	49816 23 140 140 0.0000006872 0.0000006872 1 1 1 1 1
146	49839 23 140 140 0.0000006872 0.0000006872 1 3 3 3 9
147	49862 27 141 141 0.0000006872 0.0000006872 1 65535 65535 65535 4294836225
148	49889 26 141 141 0.0000006872 0.0000006872 1 8940 8940 8940 79923600
149	49915 28 141 141 0.0000006872 0.0000006872 1 0.3725 0.3725 0.3725 0.13875625
150	49943 23 141 141 0.0000006872 0.0000006872 1 1 1 1 1
151	49966 23 141 141 0.0000006872 0.0000006872 1 3 3 3 9
152	49989 27 141 141 0.0000006872 0.0000006872 1 65535 65535 65535 4294836225
153	50016 26 141 141 0.0000006872 0.0000006872 1 8940 8940 8940 79923600
154	50042 28 141 141 0.0000006872 0.0000006872 1 0.3725 0.3725 0.3725 0.13875625
155	50070 23 141 141 0.0000006872 0.0000006872 1 1 1 1 1
156	50093 23 141 141 0.0000006872 0.0000006872 1 3 3 3 9
157	50116 27 141 141 0.0000006872 0.0000006872 1 65535 65535 65535 4294836225
158	50143 26 141 141 0.0000006872 0.0000006872 1 8940 8940 8940 79923600
159	50169 28 141 141 0.0000006872 0.0000006872 1 0.3725 0.3725 0.3725 0.13875625
160	50197 46 141 223 0.0000006872 0.0000009952 2 1 3 4 10
161	50243 27 141 141 0.0000006872 0.0000006872 1 65535 65535 65535 4294836225
162	50270 26 141 141 0.0000006872 0.0000006872 1 8940 8940 8940 79923600
163	50296 28 141 141 0.0000006872 0.0000006872 1 0.3725 0.3725 0.3725 0.13875625
164	50324 23 141 141 0.0000006872 0.0000006872 1 1 1 1 1
165	50347 23 141 141 0.0000006872 0.0000006872 1 3 3 3 9
166	50370 69 162 178 0.0000007312 0.0000008192 3 1 3 6 14
167	50439 100 162 55950 0.0000007312 5.2000102008 3 2.008e-07 0.2000002008 0.200000662 0.040000080320148
168	50539 69 163 179 0.0000007312 0.0000008192 3 1 3 6 14
169	50608 100 163 56489 0.0000007312 5.2500102008 3 2.008e-07 0.2000002008 0.200000662 0.040000080320148
170	50708 69 186 210 0.0000008632 0.0000009512 3 1 3 6 14
171	50777 69 186 210 0.0000008632 0.0000009512 3 1 3 6 14
172	50846 69 187 211 0.0000008632 0.0000009512 3 1 3 6 14
173	50915 69 187 211 0.0000008632 0.0000009512 3 1 3 6 14
174	50984 69 222 236 0.0000009952 0.0000010832 3 1 3 6 14
175	51053 30 222 222 0.0000009952 0.0000009952 1 3.08e-07 3.08e-07 3.08e-07 9.4864e-14
176	51083 69 223 237 0.0000009952 0.0000010832 3 1 3 6 14
177	51152 30 223 223 0.0000009952 0.0000009952 1 3.08e-07 3.08e-07 3.08e-07 9.4864e-14
178	51182 198944 242 118260 0.001 11.024 11024 0 0 0 0
179	250126 198944 242 118260 0.001 11.024 11024 0 0 0 0
180	449070 198944 243 118261 0.001 11.024 11024 0 0 0 0
181	648014 198944 243 118261 0.001 11.024 11024 0 0 0 0
182	846958 58507 258 118268 0.002 11.024 1838 48.385303462436 64.199371540585 106606.68144946 6226803.5138705
183	905465 58507 258 118268 0.002 11.024 1838 60.385303462436 76.199371540585 128662.68144946 9050035.8686576
184	963972 20718 259 54304 0.002 5.048 1184 1 1 1184 1184
185	984690 58459 260 118206 0.002 11.018 1837 48.385303462436 64.199371540585 107526.80566083 6334888.3742993
186	1043149 58459 260 118206 0.002 11.018 1837 60.385303462436 76.199371540585 129570.80566083 9180059.7101591
187	1101608 58662 262 118208 0.002 11.018 1837 29.429606098151 29.429606098151 54062.186402303 1591028.8506246
188	1160270 58662 262 118208 0.002 11.018 1837 41.429606098151 41.429606098151 76106.186402305 3153049.3242798
189	1218932 111078 263 118269 0.002 11.024 6165 1 1 6165 6165
190	1330010 58662 264 118210 0.002 11.018 1837 31.103286903726 31.103286903726 57136.738042142 1777140.3560678
191	1388672 58662 264 118210 0.002 11.018 1837 43.103286903726 43.103286903726 79180.738042143 3412950.0690794
192	1447334 80 21645 53785 2.00001 5.00001 4 0 1 2 2
193	1447414 46 21645 53785 2.00001 5.00001 2 2000 2001 4001 8004001
194	1447460 92 21645 55950 2.00001 5.2000102008 4 0 15 30 450
195	1447552 92 21645 55950 2.00001 5.2000102008 4 0 15 30 450
196	1447644 92 21645 55950 2.00001 5.2000102008 4 0 15 30 450
197	1447736 92 21645 55950 2.00001 5.2000102008 4 0 15 30 450
198	1447828 832 21647 56485 0.1 5.2 52 0 79360 93440 6404505600
199	1448660 832 21647 56485 0.1 5.2 52 0 79360 93440 6404505600
200	1449492 56 21651 53791 2.0000101068 5.0000101068 2 2000 2001 4001 8004001
201	1449548 61 21651 53791 2.0000101068 5.0000101068 2 0 0.0048828125 0.0048828125 2.3841857910156e-05
202	1449609 103 21651 55944 2.0000101068 5.2000101068 4 0 15 45 675
203	1449712 58 21651 55944 2.0000101068 5.2000101068 2 65520 65535 131055 8587706625
204	1449770 50 21651 55944 2.0000101068 5.2000101068 2 0 0 0 0
205	1449820 50 21651 55944 2.0000101068 5.2000101068 2 0 0 0 0
206	1449870 50 21651 55944 2.0000101068 5.2000101068 2 0 0 0 0
207	1449920 50 21651 55944 2.0000101068 5.2000101068 2 0 0 0 0
208	1449970 52 21651 55944 2.0000101068 5.2000101068 2 16 16 32 512
209	1450022 50 21651 55944 2.0000101068 5.2000101068 2 0 0 0 0
210	1450072 50 21651 55944 2.0000101068 5.2000101068 2 0 0 0 0
211	1450122 50 21651 55944 2.0000101068 5.2000101068 2 0 0 0 0
212	1450172 66 21654 53793 2.0000101068 5.0000101068 2 1.068e-07 1.068e-07 2.136e-07 2.281248e-14
213	1450238 832 21655 55946 0.1 5.2 52 0 79360 93440 6404505600
214	1451070 832 21655 55946 0.1 5.2 52 0 79360 93440 6404505600
215	1451902 52 21656 53794 2.0000101068 5.0000101068 2 15 15 30 450
216	1451954 50 21662 55950 2.0000102008 5.2000102008 2 0 0 0 0
217	1452004 50 21662 55950 2.0000102008 5.2000102008 2 0 0 0 0
218	1452054 50 21662 55950 2.0000102008 5.2000102008 2 0 0 0 0
219	1452104 56 21662 55950 2.0000102008 5.2000102008 2 2000 2001 4001 8004001
220	1452160 50 21662 55950 2.0000102008 5.2000102008 2 0 0 0 0
221	1452210 50 21662 55950 2.0000102008 5.2000102008 2 0 0 0 0
222	1452260 50 21662 55950 2.0000102008 5.2000102008 2 0 0 0 0
223	1452310 50 21662 55950 2.0000102008 5.2000102008 2 0 0 0 0
224	1452360 50 21662 55950 2.0000102008 5.2000102008 2 0 0 0 0
225	1452410 50 21662 55950 2.0000102008 5.2000102008 2 0 0 0 0
226	1452460 50 21662 55950 2.0000102008 5.2000102008 2 0 0 0 0
227	1452510 50 21662 55950 2.0000102008 5.2000102008 2 0 0 0 0
228	1452560 50 21662 55950 2.0000102008 5.2000102008 2 0 0 0 0
229	1452610 50 21662 55950 2.0000102008 5.2000102008 2 0 0 0 0
230	1452660 50 21662 55950 2.0000102008 5.2000102008 2 0 0 0 0
231	1452710 50 21662 55950 2.0000102008 5.2000102008 2 0 0 0 0
232	1452760 58 21662 55950 2.0000102008 5.2000102008 2 65520 65535 131055 8587706625
233	1452818 50 21662 55950 2.0000102008 5.2000102008 2 0 0 0 0
234	1452868 50 21662 55950 2.0000102008 5.2000102008 2 0 0 0 0
235	1452918 50 21662 55950 2.0000102008 5.2000102008 2 0 0 0 0
236	1452968 80 22194 54328 2.05001 5.05001 4 0 1 2 2
237	1453048 46 22194 54328 2.05001 5.05001 2 2000 2001 4001 8004001
238	1453094 92 22194 56489 2.05001 5.2500102008 4 0 15 30 450
239	1453186 92 22194 56489 2.05001 5.2500102008 4 0 15 30 450
240	1453278 92 22194 56489 2.05001 5.2500102008 4 0 15 30 450
241	1453370 92 22194 56489 2.05001 5.2500102008 4 0 15 30 450
242	1453462 56 22200 54334 2.0500101068 5.0500101068 2 2000 2001 4001 8004001
243	1453518 61 22200 54334 2.0500101068 5.0500101068 2 0 0.0048828125 0.0048828125 2.3841857910156e-05
244	1453579 103 22200 56483 2.0500101068 5.2500101068 4 0 15 45 675
245	1453682 58 22200 56483 2.0500101068 5.2500101068 2 65520 65535 131055 8587706625
246	1453740 50 22200 56483 2.0500101068 5.2500101068 2 0 0 0 0
247	1453790 50 22200 56483 2.0500101068 5.2500101068 2 0 0 0 0
248	1453840 50 22200 56483 2.0500101068 5.2500101068 2 0 0 0 0
249	1453890 50 22200 56483 2.0500101068 5.2500101068 2 0 0 0 0
250	1453940 52 22200 56483 2.0500101068 5.2500101068 2 16 16 32 512
251	1453992 50 22200 56483 2.0500101068 5.2500101068 2 0 0 0 0
252	1454042 50 22200 56483 2.0500101068 5.2500101068 2 0 0 0 0
253	1454092 50 22200 56483 2.0500101068 5.2500101068 2 0 0 0 0
254	1454142 66 22203 54336 2.0500101068 5.0500101068 2 1.068e-07 1.068e-07 2.136e-07 2.281248e-14
255	1454208 52 22205 54337 2.0500101068 5.0500101068 2 15 15 30 450
256	1454260 50 22211 56489 2.0500102008 5.2500102008 2 0 0 0 0
257	1454310 50 22211 56489 2.0500102008 5.2500102008 2 0 0 0 0
258	1454360 50 22211 56489 2.0500102008 5.2500102008 2 0 0 0 0
259	1454410 56 22211 56489 2.0500102008 5.2500102008 2 2000 2001 4001 8004001
260	1454466 50 22211 56489 2.0500102008 5.2500102008 2 0 0 0 0
261	1454516 50 22211 56489 2.0500102008 5.2500102008 2 0 0 0 0
262	1454566 50 22211 56489 2.0500102008 5.2500102008 2 0 0 0 0
263	1454616 50 22211 56489 2.0500102008 5.2500102008 2 0 0 0 0
264	1454666 50 22211 56489 2.0500102008 5.2500102008 2 0 0 0 0
265	1454716 50 22211 56489 2.0500102008 5.2500102008 2 0 0 0 0
266	1454766 50 22211 56489 2.0500102008 5.2500102008 2 0 0 0 0
267	1454816 50 22211 56489 2.0500102008 5.2500102008 2 0 0 0 0
268	1454866 50 22211 56489 2.0500102008 5.2500102008 2 0 0 0 0
269	1454916 50 22211 56489 2.0500102008 5.2500102008 2 0 0 0 0
270	1454966 50 22211 56489 2.0500102008 5.2500102008 2 0 0 0 0
271	1455016 50 22211 56489 2.0500102008 5.2500102008 2 0 0 0 0
272	1455066 58 22211 56489 2.0500102008 5.2500102008 2 65520 65535 131055 8587706625
273	1455124 50 22211 56489 2.0500102008 5.2500102008 2 0 0 0 0
274	1455174 50 22211 56489 2.0500102008 5.2500102008 2 0 0 0 0
275	1455224 50 22211 56489 2.0500102008 5.2500102008 2 0 0 0 0
vector 276 MultiCell.server.ppp[0].queue outgoingDataRate:vector ETV
attr interpolationmode linear
attr recordingmode vector
attr source throughput(packetPulled)
attr title "outgoing datarate"
attr unit bps
vector 277 MultiCell.server.ppp[0].queue incomingDataRate:vector ETV
attr interpolationmode linear
attr recordingmode vector
attr source throughput(packetPushStarted)
attr title "incoming datarate"
attr unit bps
vector 278 MultiCell.pgw.ppp[0].queue outgoingDataRate:vector ETV
attr interpolationmode linear
attr recordingmode vector
attr source throughput(packetPulled)
attr title "outgoing datarate"
attr unit bps
vector 279 MultiCell.pgw.ppp[0].queue incomingDataRate:vector ETV
attr interpolationmode linear
attr recordingmode vector
attr source throughput(packetPushStarted)
attr title "incoming datarate"
attr unit bps
vector 280 MultiCell.pgw.ppp[1].queue outgoingDataRate:vector ETV
attr interpolationmode linear
attr recordingmode vector
attr source throughput(packetPulled)
attr title "outgoing datarate"
attr unit bps
vector 281 MultiCell.pgw.ppp[1].queue incomingDataRate:vector ETV
attr interpolationmode linear
attr recordingmode vector
attr source throughput(packetPushStarted)
attr title "incoming datarate"
attr unit bps
vector 282 MultiCell.pgw.pppIf.queue outgoingDataRate:vector ETV
attr interpolationmode linear
attr recordingmode vector
attr source throughput(packetPulled)
attr title "outgoing datarate"
attr unit bps
vector 283 MultiCell.pgw.pppIf.queue incomingDataRate:vector ETV
attr interpolationmode linear
attr recordingmode vector
attr source throughput(packetPushStarted)
attr title "incoming datarate"
attr unit bps
vector 284 MultiCell.router.ppp[0].queue outgoingDataRate:vector ETV
attr interpolationmode linear
attr recordingmode vector
attr source throughput(packetPulled)
attr title "outgoing datarate"
attr unit bps
vector 285 MultiCell.router.ppp[0].queue incomingDataRate:vector ETV
attr interpolationmode linear
attr recordingmode vector
attr source throughput(packetPushStarted)
attr title "incoming datarate"
attr unit bps
vector 286 MultiCell.router.ppp[1].queue outgoingDataRate:vector ETV
attr interpolationmode linear
attr recordingmode vector
attr source throughput(packetPulled)
attr title "outgoing datarate"
attr unit bps
vector 287 MultiCell.router.ppp[1].queue incomingDataRate:vector ETV
attr interpolationmode linear
attr recordingmode vector
attr source throughput(packetPushStarted)
attr title "incoming datarate"
attr unit bps
vector 288 MultiCell.eNodeB1.pppIf.queue outgoingDataRate:vector ETV
attr interpolationmode linear
attr recordingmode vector
attr source throughput(packetPulled)
attr title "outgoing datarate"
attr unit bps
vector 289 MultiCell.eNodeB1.pppIf.queue incomingDataRate:vector ETV
attr interpolationmode linear
attr recordingmode vector
attr source throughput(packetPushStarted)
attr title "incoming datarate"
attr unit bps
vector 290 MultiCell.eNodeB1.pppMEHostIf.queue outgoingDataRate:vector ETV
attr interpolationmode linear
attr recordingmode vector
attr source throughput(packetPulled)
attr title "outgoing datarate"
attr unit bps
vector 291 MultiCell.eNodeB1.pppMEHostIf.queue incomingDataRate:vector ETV
attr interpolationmode linear
attr recordingmode vector
attr source throughput(packetPushStarted)
attr title "incoming datarate"
attr unit bps
vector 292 MultiCell.eNodeB2.pppIf.queue outgoingDataRate:vector ETV
attr interpolationmode linear
attr recordingmode vector
attr source throughput(packetPulled)
attr title "outgoing datarate"
attr unit bps
vector 293 MultiCell.eNodeB2.pppIf.queue incomingDataRate:vector ETV
attr interpolationmode linear
attr recordingmode vector
attr source throughput(packetPushStarted)
attr title "incoming datarate"
attr unit bps
vector 294 MultiCell.eNodeB2.pppMEHostIf.queue outgoingDataRate:vector ETV
attr interpolationmode linear
attr recordingmode vector
attr source throughput(packetPulled)
attr title "outgoing datarate"
attr unit bps
vector 295 MultiCell.eNodeB2.pppMEHostIf.queue incomingDataRate:vector ETV
attr interpolationmode linear
attr recordingmode vector
attr source throughput(packetPushStarted)
attr title "incoming datarate"
attr unit bps
58	1459468 494 128703 214304 12 20 18 30 133.41664064126 1215.9069850026 102000
59	1459962 481 128704 214305 12 20 18 30 152.97058540778 1461.2582954726 153400
60	1460443 522 128705 214306 12 20 18 232.63941646845 320.44677724228 4977.7757433965 1411265.1162577
61	1460965 522 128706 214307 12 20 18 210.79643163181 309.55531834849 4683.1657498227 1262336.6763588
178	1461487 178514 118276 214282 11.025 20 8976 0 0 0 0
179	1640001 178514 118276 214282 11.025 20 8976 0 0 0 0
180	1818515 178514 118277 214283 11.025 20 8976 0 0 0 0
181	1997029 178514 118277 214283 11.025 20 8976 0 0 0 0
182	2175543 50417 118332 214290 11.03 20 1496 53.169134498375 64.199371540585 89763.487226453 5401960.9067069
183	2225960 50417 118332 214290 11.03 20 1496 65.169134498376 76.199371540585 107715.48722645 7771708.6001418
185	2276377 50464 118270 214292 11.024 20 1497 52.918329027934 64.199371540585 88849.414871469 5294571.9871623
186	2326841 50464 118270 214292 11.024 20 1497 64.918329027934 76.199371540585 106813.41487147 7642525.9440775
187	2377305 50562 118272 214294 11.024 20 1497 29.429606098151 29.429606098151 44056.120328932 1296554.2674932
188	2427867 50562 118272 214294 11.024 20 1497 41.429606098151 41.429606098151 62020.120328932 2569469.1553875
189	2478429 118396 118271 214297 11.024 20 5987 1 1 5987 5987
190	2596825 50562 118274 214296 11.024 20 1497 31.103286903726 31.103286903726 46561.620494876 1448219.4409545
191	2647387 50562 118274 214296 11.024 20 1497 43.103286903726 43.103286903726 64525.620494875 2781266.3328317
198	2697949 2590 214308 214308 5.3 20 148 0 3840 3840 14745600
199	2700539 2590 214308 214308 5.3 20 148 0 3840 3840 14745600
213	2703129 2590 214308 214308 5.3 20 148 0 3840 3840 14745600
214	2705719 2590 214308 214308 5.3 20 148 0 3840 3840 14745600
276	2708309 3461 214308 214308 0.1 20 200 0 0 0 0
277	2711770 3461 214308 214308 0.1 20 200 0 0 0 0
278	2715231 3461 214308 214308 0.1 20 200 0 0 0 0
279	2718692 3461 214308 214308 0.1 20 200 0 0 0 0
280	2722153 3461 214308 214308 0.1 20 200 0 0 0 0
281	2725614 3461 214308 214308 0.1 20 200 0 0 0 0
282	2729075 3461 214308 214308 0.1 20 200 0 0 0 0
283	2732536 3461 214308 214308 0.1 20 200 0 0 0 0
284	2735997 3461 214308 214308 0.1 20 200 0 0 0 0
285	2739458 3461 214308 214308 0.1 20 200 0 0 0 0
286	2742919 3461 214308 214308 0.1 20 200 0 0 0 0
287	2746380 3461 214308 214308 0.1 20 200 0 0 0 0
288	2749841 3461 214308 214308 0.1 20 200 0 0 0 0
289	2753302 3461 214308 214308 0.1 20 200 0 0 0 0
290	2756763 3461 214308 214308 0.1 20 200 0 0 0 0
291	2760224 3461 214308 214308 0.1 20 200 0 0 0 0
292	2763685 3461 214308 214308 0.1 20 200 0 0 0 0
293	2767146 3461 214308 214308 0.1 20 200 0 0 0 0
294	2770607 3461 214308 214308 0.1 20 200 0 0 0 0
295	2774068 3461 214308 214308 0.1 20 200 0 0 0 0

