version 3
run Handover-General-0-20230212-18:08:25-998645
attr configname Handover-General
attr datetime 20230212-18:08:25
attr datetimef 20230212-180825
attr experiment Handover-General
attr inifile omnetpp.ini
attr iterationvars ""
attr iterationvarsd ""
attr iterationvarsf ""
attr measurement ""
attr network simu5g.simulations.LTE.networks.MultiCell
attr processid 998645
attr repetition 0
attr replication #0
attr resultdir results
attr runnumber 0
attr seedset 0
config image-path ../../../images:../../../../inet4.4/images:../../../../veins-veins-5.2/subprojects/veins_inet/images:../../../../veins-veins-5.2/images
config **.ue1*.macCellId 1
config **.ue1*.masterId 1
config **.ue2*.macCellId 2
config **.ue2*.masterId 2
config **.cellularNic.phy.enableHandover true
config *.eNodeB*.numX2Apps 1
config *.eNodeB*.x2App[*].server.localPort "5000 + ancestorIndex(1)"
config *.eNodeB1.x2App[0].client.connectAddress "\"eNodeB2%x2ppp0\""
config *.eNodeB2.x2App[0].client.connectAddress "\"eNodeB1%x2ppp0\""
config **.mobility.initFromDisplayString false
config *.eNodeB1.mobility.initialX 300m
config *.eNodeB1.mobility.initialY 250m
config *.eNodeB2.mobility.initialX 400m
config *.eNodeB2.mobility.initialY 250m
config *.ue11.mobility.initialX 350m
config *.ue11.mobility.initialY 280m
config *.ue11.mobility.speed 10mps
config *.ue11.mobility.initialMovementHeading 0deg
config *.ue11.mobility.typename LinearMobility
config *.ue11.mobility.constraintAreaMinX 250m
config *.ue11.mobility.constraintAreaMaxX 450m
config *.ue12.mobility.initialX 320m
config *.ue12.mobility.initialY 280m
config *.ue12.mobility.speed 10mps
config *.ue12.mobility.initialMovementHeading 0deg
config *.ue12.mobility.typename LinearMobility
config *.ue12.mobility.constraintAreaMinX 250m
config *.ue12.mobility.constraintAreaMaxX 450m
config *.ue*.mobility.constraintAreaMaxX 750m
config *.ue*.mobility.constraintAreaMaxY 400m
config *.ue*.mobility.constraintAreaMinX 50m
config *.ue*.mobility.constraintAreaMinY 100m
config *.ue2*.mobility.initialX uniform(450m,750m)
config *.ue2*.mobility.initialY uniform(100m,400m)
config *.ue*.mobility.initialZ 0m
config **.eNodeB*.cellularNic.phy.targetBler 0.004
config image-path ../../images
config output-scalar-file-append false
config sim-time-limit 20s
config network simu5g.simulations.LTE.networks.MultiCell
config **.routingRecorder.enabled false
config **.vector-recording true
config **.cellularNic.channelModel[0].shadowing false
config **.cellularNic.channelModel[0].fading false
config **.mobility.constraintAreaMinZ 0m
config **.mobility.constraintAreaMaxZ 0m
config **.mobility.initFromDisplayString true
config **.numBands 25
config **.ueTxPower 26
config **.eNodeBTxPower 40
config *.configurator.config "xmldoc(\"./demo.xml\")"
config **.hasRNISupport false

vector 0 MultiCell.server.ppp[0].ppp transmissionState:vector ETV
attr interpolationmode sample-hold
attr recordingmode vector
attr source transmissionStateChanged
attr title "tx state"
vector 1 MultiCell.server.udp passedUpPk:vector(count) ETV
attr interpolationmode none
attr recordingmode vector(count)
attr source packetSentToUpper
attr title "packets passed up, count"
vector 2 MultiCell.server.udp droppedPkWrongPort:vector(count) ETV
attr interpolationmode none
attr recordingmode vector(count)
attr source packetDropReasonIsNoPortFound(packetDropped)
attr title "packets dropped (wrong port), count"
vector 3 MultiCell.server.udp droppedPkBadChecksum:vector(count) ETV
attr interpolationmode none
attr recordingmode vector(count)
attr source packetDropReasonIsIncorrectlyReceived(packetDropped)
attr title "packets dropped (checksum error), count"
vector 4 MultiCell.pgw.ppp[0].ppp transmissionState:vector ETV
attr interpolationmode sample-hold
attr recordingmode vector
attr source transmissionStateChanged
attr title "tx state"
vector 5 MultiCell.pgw.ppp[1].ppp transmissionState:vector ETV
attr interpolationmode sample-hold
attr recordingmode vector
attr source transmissionStateChanged
attr title "tx state"
vector 6 MultiCell.pgw.pppIf.ppp transmissionState:vector ETV
attr interpolationmode sample-hold
attr recordingmode vector
attr source transmissionStateChanged
attr title "tx state"
vector 7 MultiCell.pgw.udp passedUpPk:vector(count) ETV
attr interpolationmode none
attr recordingmode vector(count)
attr source packetSentToUpper
attr title "packets passed up, count"
vector 8 MultiCell.pgw.udp droppedPkWrongPort:vector(count) ETV
attr interpolationmode none
attr recordingmode vector(count)
attr source packetDropReasonIsNoPortFound(packetDropped)
attr title "packets dropped (wrong port), count"
vector 9 MultiCell.pgw.udp droppedPkBadChecksum:vector(count) ETV
attr interpolationmode none
attr recordingmode vector(count)
attr source packetDropReasonIsIncorrectlyReceived(packetDropped)
attr title "packets dropped (checksum error), count"
vector 10 MultiCell.router.ppp[0].ppp transmissionState:vector ETV
attr interpolationmode sample-hold
attr recordingmode vector
attr source transmissionStateChanged
attr title "tx state"
vector 11 MultiCell.router.ppp[1].ppp transmissionState:vector ETV
attr interpolationmode sample-hold
attr recordingmode vector
attr source transmissionStateChanged
attr title "tx state"
vector 12 MultiCell.eNodeB1.pppIf.ppp transmissionState:vector ETV
attr interpolationmode sample-hold
attr recordingmode vector
attr source transmissionStateChanged
attr title "tx state"
vector 13 MultiCell.eNodeB1.x2ppp[0].ppp transmissionState:vector ETV
attr interpolationmode sample-hold
attr recordingmode vector
attr source transmissionStateChanged
attr title "tx state"
vector 14 MultiCell.eNodeB1.pppMEHostIf.ppp transmissionState:vector ETV
attr interpolationmode sample-hold
attr recordingmode vector
attr source transmissionStateChanged
attr title "tx state"
vector 15 MultiCell.eNodeB1.udp passedUpPk:vector(count) ETV
attr interpolationmode none
attr recordingmode vector(count)
attr source packetSentToUpper
attr title "packets passed up, count"
vector 16 MultiCell.eNodeB1.udp droppedPkWrongPort:vector(count) ETV
attr interpolationmode none
attr recordingmode vector(count)
attr source packetDropReasonIsNoPortFound(packetDropped)
attr title "packets dropped (wrong port), count"
vector 17 MultiCell.eNodeB1.udp droppedPkBadChecksum:vector(count) ETV
attr interpolationmode none
attr recordingmode vector(count)
attr source packetDropReasonIsIncorrectlyReceived(packetDropped)
attr title "packets dropped (checksum error), count"
vector 18 MultiCell.eNodeB2.pppIf.ppp transmissionState:vector ETV
attr interpolationmode sample-hold
attr recordingmode vector
attr source transmissionStateChanged
attr title "tx state"
vector 19 MultiCell.eNodeB2.x2ppp[0].ppp transmissionState:vector ETV
attr interpolationmode sample-hold
attr recordingmode vector
attr source transmissionStateChanged
attr title "tx state"
vector 20 MultiCell.eNodeB2.pppMEHostIf.ppp transmissionState:vector ETV
attr interpolationmode sample-hold
attr recordingmode vector
attr source transmissionStateChanged
attr title "tx state"
vector 21 MultiCell.eNodeB2.udp passedUpPk:vector(count) ETV
attr interpolationmode none
attr recordingmode vector(count)
attr source packetSentToUpper
attr title "packets passed up, count"
vector 22 MultiCell.eNodeB2.udp droppedPkWrongPort:vector(count) ETV
attr interpolationmode none
attr recordingmode vector(count)
attr source packetDropReasonIsNoPortFound(packetDropped)
attr title "packets dropped (wrong port), count"
vector 23 MultiCell.eNodeB2.udp droppedPkBadChecksum:vector(count) ETV
attr interpolationmode none
attr recordingmode vector(count)
attr source packetDropReasonIsIncorrectlyReceived(packetDropped)
attr title "packets dropped (checksum error), count"
vector 24 MultiCell.ue11.udp passedUpPk:vector(count) ETV
attr interpolationmode none
attr recordingmode vector(count)
attr source packetSentToUpper
attr title "packets passed up, count"
vector 25 MultiCell.ue11.udp droppedPkWrongPort:vector(count) ETV
attr interpolationmode none
attr recordingmode vector(count)
attr source packetDropReasonIsNoPortFound(packetDropped)
attr title "packets dropped (wrong port), count"
vector 26 MultiCell.ue11.udp droppedPkBadChecksum:vector(count) ETV
attr interpolationmode none
attr recordingmode vector(count)
attr source packetDropReasonIsIncorrectlyReceived(packetDropped)
attr title "packets dropped (checksum error), count"
vector 27 MultiCell.ue12.udp passedUpPk:vector(count) ETV
attr interpolationmode none
attr recordingmode vector(count)
attr source packetSentToUpper
attr title "packets passed up, count"
vector 28 MultiCell.ue12.udp droppedPkWrongPort:vector(count) ETV
attr interpolationmode none
attr recordingmode vector(count)
attr source packetDropReasonIsNoPortFound(packetDropped)
attr title "packets dropped (wrong port), count"
vector 29 MultiCell.ue12.udp droppedPkBadChecksum:vector(count) ETV
attr interpolationmode none
attr recordingmode vector(count)
attr source packetDropReasonIsIncorrectlyReceived(packetDropped)
attr title "packets dropped (checksum error), count"
vector 30 MultiCell.ue21.udp passedUpPk:vector(count) ETV
attr interpolationmode none
attr recordingmode vector(count)
attr source packetSentToUpper
attr title "packets passed up, count"
vector 31 MultiCell.ue21.udp droppedPkWrongPort:vector(count) ETV
attr interpolationmode none
attr recordingmode vector(count)
attr source packetDropReasonIsNoPortFound(packetDropped)
attr title "packets dropped (wrong port), count"
vector 32 MultiCell.ue21.udp droppedPkBadChecksum:vector(count) ETV
attr interpolationmode none
attr recordingmode vector(count)
attr source packetDropReasonIsIncorrectlyReceived(packetDropped)
attr title "packets dropped (checksum error), count"
vector 33 MultiCell.ue22.udp passedUpPk:vector(count) ETV
attr interpolationmode none
attr recordingmode vector(count)
attr source packetSentToUpper
attr title "packets passed up, count"
vector 34 MultiCell.ue22.udp droppedPkWrongPort:vector(count) ETV
attr interpolationmode none
attr recordingmode vector(count)
attr source packetDropReasonIsNoPortFound(packetDropped)
attr title "packets dropped (wrong port), count"
vector 35 MultiCell.ue22.udp droppedPkBadChecksum:vector(count) ETV
attr interpolationmode none
attr recordingmode vector(count)
attr source packetDropReasonIsIncorrectlyReceived(packetDropped)
attr title "packets dropped (checksum error), count"
vector 36 MultiCell.ue11.cellularNic.phy servingCell:vector ETV
attr recordingmode vector
attr source servingCell
attr title "ID of the serving eNodeB for the UE"
attr unit ""
vector 37 MultiCell.ue12.cellularNic.phy servingCell:vector ETV
attr recordingmode vector
attr source servingCell
attr title "ID of the serving eNodeB for the UE"
attr unit ""
vector 38 MultiCell.ue21.cellularNic.phy servingCell:vector ETV
attr recordingmode vector
attr source servingCell
attr title "ID of the serving eNodeB for the UE"
attr unit ""
vector 39 MultiCell.ue22.cellularNic.phy servingCell:vector ETV
attr recordingmode vector
attr source servingCell
attr title "ID of the serving eNodeB for the UE"
attr unit ""
vector 40 MultiCell.eNodeB1.sctp "Throughput of Association 27" ETV
vector 41 MultiCell.eNodeB2.sctp "Throughput of Association 28" ETV
vector 42 MultiCell.eNodeB1.sctp "Throughput of Association 4" ETV
vector 43 MultiCell.eNodeB1.sctp "Fast Recovery State 4:10.0.5.2" ETV
vector 44 MultiCell.eNodeB2.sctp "Throughput of Association 8" ETV
vector 45 MultiCell.eNodeB2.sctp "Fast Recovery State 8:10.0.5.1" ETV
vector 46 MultiCell.eNodeB1.x2ppp[0].queue incomingPacketLengths:vector ETV
attr interpolationmode none
attr recordingmode vector
attr source packetLength(packetPushStarted)
attr title "incoming packet lengths"
attr unit b
vector 47 MultiCell.eNodeB1.x2ppp[0].queue queueingTime:vector ETV
attr interpolationmode none
attr recordingmode vector
attr source queueingTime(packetPulled)
attr title "queueing times"
attr unit s
vector 48 MultiCell.eNodeB1.x2ppp[0].queue outgoingPacketLengths:vector ETV
attr interpolationmode none
attr recordingmode vector
attr source packetLength(packetPulled)
attr title "outgoing packet lengths"
attr unit b
vector 49 MultiCell.eNodeB1.x2ppp[0].ppp txPk:vector(packetBytes) ETV
attr interpolationmode none
attr recordingmode vector(packetBytes)
attr source packetSentToLower
attr title "packets transmitted, packetBytes"
vector 50 MultiCell.eNodeB1.x2ppp[0].queue queueLength:vector ETV
attr autoWarmupFilter false
attr interpolationmode sample-hold
attr recordingmode vector
attr source "warmup(atomic(constant0(packetPushEnded) + count(packetPushStarted) - count(packetPulled) - count(packetRemoved) - count(packetDropped)))"
attr title "queue length"
attr unit pk
vector 51 MultiCell.eNodeB1.x2ppp[0].queue queueBitLength:vector ETV
attr autoWarmupFilter false
attr interpolationmode sample-hold
attr recordingmode vector
attr source "warmup(atomic(constant0(packetPushEnded) + sum(packetLength(packetPushStarted)) - sum(packetLength(packetPulled)) - sum(packetLength(packetRemoved)) - sum(packetLength(packetDropped))))"
attr title "queue bit length"
attr unit b
vector 52 MultiCell.eNodeB2.x2ppp[0].queue incomingPacketLengths:vector ETV
attr interpolationmode none
attr recordingmode vector
attr source packetLength(packetPushStarted)
attr title "incoming packet lengths"
attr unit b
vector 53 MultiCell.eNodeB2.x2ppp[0].queue queueingTime:vector ETV
attr interpolationmode none
attr recordingmode vector
attr source queueingTime(packetPulled)
attr title "queueing times"
attr unit s
vector 54 MultiCell.eNodeB2.x2ppp[0].queue outgoingPacketLengths:vector ETV
attr interpolationmode none
attr recordingmode vector
attr source packetLength(packetPulled)
attr title "outgoing packet lengths"
attr unit b
vector 55 MultiCell.eNodeB2.x2ppp[0].ppp txPk:vector(packetBytes) ETV
attr interpolationmode none
attr recordingmode vector(packetBytes)
attr source packetSentToLower
attr title "packets transmitted, packetBytes"
vector 56 MultiCell.eNodeB2.x2ppp[0].queue queueLength:vector ETV
attr autoWarmupFilter false
attr interpolationmode sample-hold
attr recordingmode vector
attr source "warmup(atomic(constant0(packetPushEnded) + count(packetPushStarted) - count(packetPulled) - count(packetRemoved) - count(packetDropped)))"
attr title "queue length"
attr unit pk
vector 57 MultiCell.eNodeB2.x2ppp[0].queue queueBitLength:vector ETV
attr autoWarmupFilter false
attr interpolationmode sample-hold
attr recordingmode vector
attr source "warmup(atomic(constant0(packetPushEnded) + sum(packetLength(packetPushStarted)) - sum(packetLength(packetPulled)) - sum(packetLength(packetRemoved)) - sum(packetLength(packetDropped))))"
attr title "queue bit length"
attr unit b
vector 58 MultiCell.ue11.cellularNic.channelModel[0] distance:vector ETV
attr recordingmode vector
attr source distance
attr title "distance between UE and serving base station"
attr unit meters
vector 59 MultiCell.ue12.cellularNic.channelModel[0] distance:vector ETV
attr recordingmode vector
attr source distance
attr title "distance between UE and serving base station"
attr unit meters
vector 60 MultiCell.ue21.cellularNic.channelModel[0] distance:vector ETV
attr recordingmode vector
attr source distance
attr title "distance between UE and serving base station"
attr unit meters
vector 61 MultiCell.ue22.cellularNic.channelModel[0] distance:vector ETV
attr recordingmode vector
attr source distance
attr title "distance between UE and serving base station"
attr unit meters
vector 62 MultiCell.eNodeB2.x2ppp[0].ppp rxPkOk:vector(packetBytes) ETV
attr interpolationmode none
attr recordingmode vector(packetBytes)
attr source rxPkOk
attr title "packets received OK, packetBytes"
vector 63 MultiCell.eNodeB2.x2ppp[0].ppp passedUpPk:vector(packetBytes) ETV
attr interpolationmode none
attr recordingmode vector(packetBytes)
attr source packetSentToUpper
attr title "packets passed to higher layer, packetBytes"
vector 64 MultiCell.eNodeB1.x2ppp[0].ppp rxPkOk:vector(packetBytes) ETV
attr interpolationmode none
attr recordingmode vector(packetBytes)
attr source rxPkOk
attr title "packets received OK, packetBytes"
vector 65 MultiCell.eNodeB1.x2ppp[0].ppp passedUpPk:vector(packetBytes) ETV
attr interpolationmode none
attr recordingmode vector(packetBytes)
attr source packetSentToUpper
attr title "packets passed to higher layer, packetBytes"
vector 66 MultiCell.eNodeB2.sctp "Throughput of Association 28" ETV
vector 67 MultiCell.eNodeB2.sctp "Peer Rwnd 28" ETV
vector 68 MultiCell.eNodeB2.sctp "Fast Recovery State 29:10.0.4.1" ETV
vector 69 MultiCell.eNodeB2.sctp "Fast Recovery State 29:10.0.1.2" ETV
vector 70 MultiCell.eNodeB2.sctp "Fast Recovery State 29:10.0.5.1" ETV
vector 71 MultiCell.eNodeB2.sctp "Fast Recovery State 29:10.0.6.1" ETV
vector 72 MultiCell.eNodeB1.sctp "Throughput of Association 27" ETV
vector 73 MultiCell.eNodeB1.sctp "Peer Rwnd 27" ETV
vector 74 MultiCell.eNodeB1.sctp "Fast Recovery State 30:10.0.4.2" ETV
vector 75 MultiCell.eNodeB1.sctp "Fast Recovery State 30:10.0.2.2" ETV
vector 76 MultiCell.eNodeB1.sctp "Fast Recovery State 30:10.0.5.2" ETV
vector 77 MultiCell.eNodeB1.sctp "Fast Recovery State 30:10.0.7.1" ETV
vector 78 MultiCell.eNodeB1.sctp "Peer Rwnd 4" ETV
vector 79 MultiCell.eNodeB1.sctp "Fast Recovery State 4:10.0.4.2" ETV
vector 80 MultiCell.eNodeB1.sctp "Fast Recovery State 4:10.0.2.2" ETV
vector 81 MultiCell.eNodeB1.sctp "Fast Recovery State 4:10.0.7.1" ETV
vector 82 MultiCell.eNodeB2.sctp "Peer Rwnd 8" ETV
vector 83 MultiCell.eNodeB2.sctp "Fast Recovery State 8:10.0.4.1" ETV
vector 84 MultiCell.eNodeB2.sctp "Fast Recovery State 8:10.0.1.2" ETV
vector 85 MultiCell.eNodeB2.sctp "Fast Recovery State 8:10.0.6.1" ETV
vector 86 MultiCell.eNodeB2.sctp "Slow Start Threshold 29:10.0.1.2" ETV
vector 87 MultiCell.eNodeB2.sctp "Congestion Window 29:10.0.1.2" ETV
vector 88 MultiCell.eNodeB2.sctp "Bandwidth 29:10.0.1.2" ETV
vector 89 MultiCell.eNodeB2.sctp "HB Sent 29:10.0.1.2" ETV
vector 90 MultiCell.eNodeB2.sctp "RTO 29:10.0.1.2" ETV
vector 91 MultiCell.eNodeB2.sctp "Slow Start Threshold 29:10.0.4.1" ETV
vector 92 MultiCell.eNodeB2.sctp "Congestion Window 29:10.0.4.1" ETV
vector 93 MultiCell.eNodeB2.sctp "Bandwidth 29:10.0.4.1" ETV
vector 94 MultiCell.eNodeB2.sctp "HB Sent 29:10.0.4.1" ETV
vector 95 MultiCell.eNodeB2.sctp "RTO 29:10.0.4.1" ETV
vector 96 MultiCell.eNodeB2.sctp "Slow Start Threshold 29:10.0.5.1" ETV
vector 97 MultiCell.eNodeB2.sctp "Congestion Window 29:10.0.5.1" ETV
vector 98 MultiCell.eNodeB2.sctp "Bandwidth 29:10.0.5.1" ETV
vector 99 MultiCell.eNodeB2.sctp "RTO 29:10.0.5.1" ETV
vector 100 MultiCell.eNodeB2.sctp "Slow Start Threshold 29:10.0.6.1" ETV
vector 101 MultiCell.eNodeB2.sctp "Congestion Window 29:10.0.6.1" ETV
vector 102 MultiCell.eNodeB2.sctp "Bandwidth 29:10.0.6.1" ETV
vector 103 MultiCell.eNodeB2.sctp "HB Sent 29:10.0.6.1" ETV
vector 104 MultiCell.eNodeB2.sctp "RTO 29:10.0.6.1" ETV
vector 105 MultiCell.eNodeB1.sctp "Slow Start Threshold 30:10.0.2.2" ETV
vector 106 MultiCell.eNodeB1.sctp "Congestion Window 30:10.0.2.2" ETV
vector 107 MultiCell.eNodeB1.sctp "Bandwidth 30:10.0.2.2" ETV
vector 108 MultiCell.eNodeB1.sctp "HB Sent 30:10.0.2.2" ETV
vector 109 MultiCell.eNodeB1.sctp "RTO 30:10.0.2.2" ETV
vector 110 MultiCell.eNodeB1.sctp "Slow Start Threshold 30:10.0.4.2" ETV
vector 111 MultiCell.eNodeB1.sctp "Congestion Window 30:10.0.4.2" ETV
vector 112 MultiCell.eNodeB1.sctp "Bandwidth 30:10.0.4.2" ETV
vector 113 MultiCell.eNodeB1.sctp "HB Sent 30:10.0.4.2" ETV
vector 114 MultiCell.eNodeB1.sctp "RTO 30:10.0.4.2" ETV
vector 115 MultiCell.eNodeB1.sctp "Slow Start Threshold 30:10.0.5.2" ETV
vector 116 MultiCell.eNodeB1.sctp "Congestion Window 30:10.0.5.2" ETV
vector 117 MultiCell.eNodeB1.sctp "Bandwidth 30:10.0.5.2" ETV
vector 118 MultiCell.eNodeB1.sctp "RTO 30:10.0.5.2" ETV
vector 119 MultiCell.eNodeB1.sctp "Slow Start Threshold 30:10.0.7.1" ETV
vector 120 MultiCell.eNodeB1.sctp "Congestion Window 30:10.0.7.1" ETV
vector 121 MultiCell.eNodeB1.sctp "Bandwidth 30:10.0.7.1" ETV
vector 122 MultiCell.eNodeB1.sctp "HB Sent 30:10.0.7.1" ETV
vector 123 MultiCell.eNodeB1.sctp "RTO 30:10.0.7.1" ETV
vector 124 MultiCell.eNodeB1.sctp "HB ACK Sent 4:10.0.5.2" ETV
vector 125 MultiCell.eNodeB1.sctp "HB Received 4:10.0.5.2" ETV
vector 126 MultiCell.eNodeB2.sctp "HB ACK Sent 8:10.0.5.1" ETV
vector 127 MultiCell.eNodeB2.sctp "HB Received 8:10.0.5.1" ETV
vector 128 MultiCell.eNodeB1.sctp "Slow Start Threshold 4:10.0.2.2" ETV
vector 129 MultiCell.eNodeB1.sctp "Congestion Window 4:10.0.2.2" ETV
vector 130 MultiCell.eNodeB1.sctp "Bandwidth 4:10.0.2.2" ETV
vector 131 MultiCell.eNodeB1.sctp "HB Sent 4:10.0.2.2" ETV
vector 132 MultiCell.eNodeB1.sctp "RTO 4:10.0.2.2" ETV
vector 133 MultiCell.eNodeB1.sctp "Slow Start Threshold 4:10.0.4.2" ETV
vector 134 MultiCell.eNodeB1.sctp "Congestion Window 4:10.0.4.2" ETV
vector 135 MultiCell.eNodeB1.sctp "Bandwidth 4:10.0.4.2" ETV
vector 136 MultiCell.eNodeB1.sctp "HB Sent 4:10.0.4.2" ETV
vector 137 MultiCell.eNodeB1.sctp "RTO 4:10.0.4.2" ETV
vector 138 MultiCell.eNodeB1.sctp "Slow Start Threshold 4:10.0.5.2" ETV
vector 139 MultiCell.eNodeB1.sctp "Congestion Window 4:10.0.5.2" ETV
vector 140 MultiCell.eNodeB1.sctp "Bandwidth 4:10.0.5.2" ETV
vector 141 MultiCell.eNodeB1.sctp "RTO 4:10.0.5.2" ETV
vector 142 MultiCell.eNodeB1.sctp "Slow Start Threshold 4:10.0.7.1" ETV
vector 143 MultiCell.eNodeB1.sctp "Congestion Window 4:10.0.7.1" ETV
vector 144 MultiCell.eNodeB1.sctp "Bandwidth 4:10.0.7.1" ETV
vector 145 MultiCell.eNodeB1.sctp "HB Sent 4:10.0.7.1" ETV
vector 146 MultiCell.eNodeB1.sctp "RTO 4:10.0.7.1" ETV
vector 147 MultiCell.eNodeB2.sctp "Slow Start Threshold 8:10.0.1.2" ETV
vector 148 MultiCell.eNodeB2.sctp "Congestion Window 8:10.0.1.2" ETV
vector 149 MultiCell.eNodeB2.sctp "Bandwidth 8:10.0.1.2" ETV
vector 150 MultiCell.eNodeB2.sctp "HB Sent 8:10.0.1.2" ETV
vector 151 MultiCell.eNodeB2.sctp "RTO 8:10.0.1.2" ETV
vector 152 MultiCell.eNodeB2.sctp "Slow Start Threshold 8:10.0.4.1" ETV
vector 153 MultiCell.eNodeB2.sctp "Congestion Window 8:10.0.4.1" ETV
vector 154 MultiCell.eNodeB2.sctp "Bandwidth 8:10.0.4.1" ETV
vector 155 MultiCell.eNodeB2.sctp "HB Sent 8:10.0.4.1" ETV
vector 156 MultiCell.eNodeB2.sctp "RTO 8:10.0.4.1" ETV
vector 157 MultiCell.eNodeB2.sctp "Slow Start Threshold 8:10.0.5.1" ETV
vector 158 MultiCell.eNodeB2.sctp "Congestion Window 8:10.0.5.1" ETV
vector 159 MultiCell.eNodeB2.sctp "Bandwidth 8:10.0.5.1" ETV
vector 160 MultiCell.eNodeB2.sctp "RTO 8:10.0.5.1" ETV
vector 161 MultiCell.eNodeB2.sctp "Slow Start Threshold 8:10.0.6.1" ETV
vector 162 MultiCell.eNodeB2.sctp "Congestion Window 8:10.0.6.1" ETV
vector 163 MultiCell.eNodeB2.sctp "Bandwidth 8:10.0.6.1" ETV
vector 164 MultiCell.eNodeB2.sctp "HB Sent 8:10.0.6.1" ETV
vector 165 MultiCell.eNodeB2.sctp "RTO 8:10.0.6.1" ETV
vector 166 MultiCell.eNodeB1.sctp "HB ACK Received 30:10.0.5.2" ETV
vector 167 MultiCell.eNodeB1.sctp "RTT 30:10.0.5.2" ETV
vector 168 MultiCell.eNodeB2.sctp "HB ACK Received 29:10.0.5.1" ETV
vector 169 MultiCell.eNodeB2.sctp "RTT 29:10.0.5.1" ETV
vector 170 MultiCell.eNodeB1.sctp "HB ACK Sent 30:10.0.5.2" ETV
vector 171 MultiCell.eNodeB1.sctp "HB Received 30:10.0.5.2" ETV
vector 172 MultiCell.eNodeB2.sctp "HB ACK Sent 29:10.0.5.1" ETV
vector 173 MultiCell.eNodeB2.sctp "HB Received 29:10.0.5.1" ETV
vector 174 MultiCell.eNodeB1.sctp "HB ACK Received 4:10.0.5.2" ETV
vector 175 MultiCell.eNodeB1.sctp "RTT 4:10.0.5.2" ETV
vector 176 MultiCell.eNodeB2.sctp "HB ACK Received 8:10.0.5.1" ETV
vector 177 MultiCell.eNodeB2.sctp "RTT 8:10.0.5.1" ETV
vector 178 MultiCell.eNodeB1.cellularNic.mac avgServedBlocksUl:vector ETV
attr recordingmode vector
attr source avgServedBlocksUl
attr title "Avg Served Blocks Ul"
attr unit blocks
vector 179 MultiCell.eNodeB1.cellularNic.mac avgServedBlocksDl:vector ETV
attr recordingmode vector
attr source avgServedBlocksDl
attr title "Avg Served Blocks Dl"
attr unit blocks
vector 180 MultiCell.eNodeB2.cellularNic.mac avgServedBlocksUl:vector ETV
attr recordingmode vector
attr source avgServedBlocksUl
attr title "Avg Served Blocks Ul"
attr unit blocks
vector 181 MultiCell.eNodeB2.cellularNic.mac avgServedBlocksDl:vector ETV
attr recordingmode vector
attr source avgServedBlocksDl
attr title "Avg Served Blocks Dl"
attr unit blocks
vector 182 MultiCell.ue11.cellularNic.channelModel[0] measuredSinrUl:vector ETV
attr recordingmode vector
attr source measuredSinrUl
attr title "SINR measured at feedback computation, UL"
attr unit dB
vector 183 MultiCell.ue11.cellularNic.channelModel[0] measuredSinrDl:vector ETV
attr recordingmode vector
attr source measuredSinrDl
attr title "SINR measured at feedback computation, DL"
attr unit dB
vector 184 MultiCell.eNodeB1.cellularNic.mac receivedPacketFromLowerLayer:vector(packetBytes) ETV
attr interpolationmode none
attr recordingmode vector(packetBytes)
attr source receivedPacketFromLowerLayer
vector 185 MultiCell.ue12.cellularNic.channelModel[0] measuredSinrUl:vector ETV
attr recordingmode vector
attr source measuredSinrUl
attr title "SINR measured at feedback computation, UL"
attr unit dB
vector 186 MultiCell.ue12.cellularNic.channelModel[0] measuredSinrDl:vector ETV
attr recordingmode vector
attr source measuredSinrDl
attr title "SINR measured at feedback computation, DL"
attr unit dB
vector 187 MultiCell.ue21.cellularNic.channelModel[0] measuredSinrUl:vector ETV
attr recordingmode vector
attr source measuredSinrUl
attr title "SINR measured at feedback computation, UL"
attr unit dB
vector 188 MultiCell.ue21.cellularNic.channelModel[0] measuredSinrDl:vector ETV
attr recordingmode vector
attr source measuredSinrDl
attr title "SINR measured at feedback computation, DL"
attr unit dB
vector 189 MultiCell.eNodeB2.cellularNic.mac receivedPacketFromLowerLayer:vector(packetBytes) ETV
attr interpolationmode none
attr recordingmode vector(packetBytes)
attr source receivedPacketFromLowerLayer
vector 190 MultiCell.ue22.cellularNic.channelModel[0] measuredSinrUl:vector ETV
attr recordingmode vector
attr source measuredSinrUl
attr title "SINR measured at feedback computation, UL"
attr unit dB
vector 191 MultiCell.ue22.cellularNic.channelModel[0] measuredSinrDl:vector ETV
attr recordingmode vector
attr source measuredSinrDl
attr title "SINR measured at feedback computation, DL"
attr unit dB
vector 192 MultiCell.eNodeB1.sctp "SendQueue of Association 30" ETV
vector 193 MultiCell.eNodeB1.sctp "TSN Sent 30:10.0.5.2" ETV
vector 194 MultiCell.eNodeB1.sctp "Outstanding Bytes 30:10.0.5.2" ETV
vector 195 MultiCell.eNodeB1.sctp "Outstanding Bytes 27:Total" ETV
vector 196 MultiCell.eNodeB1.sctp "Queued Sent Bytes 30:10.0.5.2" ETV
vector 197 MultiCell.eNodeB1.sctp "Queued Sent Bytes 27:Total" ETV
vector 198 MultiCell.eNodeB1.x2ppp[0].queue incomingDataRate:vector ETV
attr interpolationmode linear
attr recordingmode vector
attr source throughput(packetPushStarted)
attr title "incoming datarate"
attr unit bps
vector 199 MultiCell.eNodeB1.x2ppp[0].queue outgoingDataRate:vector ETV
attr interpolationmode linear
attr recordingmode vector
attr source throughput(packetPulled)
attr title "outgoing datarate"
attr unit bps
vector 200 MultiCell.eNodeB2.sctp "TSN Received 8:10.0.5.1" ETV
vector 201 MultiCell.eNodeB2.sctp "Stream 0 Throughput" ETV
vector 202 MultiCell.eNodeB2.sctp "Queued Received Bytes 8:Total" ETV
vector 203 MultiCell.eNodeB2.sctp "Advertised Receiver Window 8" ETV
vector 204 MultiCell.eNodeB2.sctp "Number of Total Gap Blocks Stored 8" ETV
vector 205 MultiCell.eNodeB2.sctp "Number of Revokable Gap Blocks Stored 8" ETV
vector 206 MultiCell.eNodeB2.sctp "Number of Non-Revokable Gap Blocks Stored 8" ETV
vector 207 MultiCell.eNodeB2.sctp "Number of Duplicate TSNs Stored 8" ETV
vector 208 MultiCell.eNodeB2.sctp "Length of SACK Sent 8" ETV
vector 209 MultiCell.eNodeB2.sctp "Number of Revokable Gap Blocks Sent 8" ETV
vector 210 MultiCell.eNodeB2.sctp "Number of Non-Revokable Gap Blocks Sent 8" ETV
vector 211 MultiCell.eNodeB2.sctp "Number of Duplicate TSNs Sent 8" ETV
vector 212 MultiCell.eNodeB2.sctp "End to End Delay of Association 8" ETV
vector 213 MultiCell.eNodeB2.x2ppp[0].queue incomingDataRate:vector ETV
attr interpolationmode linear
attr recordingmode vector
attr source throughput(packetPushStarted)
attr title "incoming datarate"
attr unit bps
vector 214 MultiCell.eNodeB2.x2ppp[0].queue outgoingDataRate:vector ETV
attr interpolationmode linear
attr recordingmode vector
attr source throughput(packetPulled)
attr title "outgoing datarate"
attr unit bps
vector 215 MultiCell.eNodeB2.x2App[0].client packetReceived:vector(packetBytes) ETV
attr interpolationmode none
attr recordingmode vector(packetBytes)
attr source packetReceived
attr title "packets received, packetBytes"
vector 216 MultiCell.eNodeB1.sctp "Number of Gap Blocks in Last SACK of Association 30" ETV
vector 217 MultiCell.eNodeB1.sctp "Number of Revokable Gap Blocks in SACK 27" ETV
vector 218 MultiCell.eNodeB1.sctp "Number of Non-Revokable Gap Blocks in SACK 27" ETV
vector 219 MultiCell.eNodeB1.sctp "TSN Acked CumAck 30:10.0.5.2" ETV
vector 220 MultiCell.eNodeB1.sctp "Number of Gap Acked Chunks in Last SACK 30:10.0.2.2" ETV
vector 221 MultiCell.eNodeB1.sctp "Number of Non-Revokable Gap Acked Chunks in Last SACK 30:10.0.2.2" ETV
vector 222 MultiCell.eNodeB1.sctp "Number of Gap Missed Chunks in Last SACK 30:10.0.2.2" ETV
vector 223 MultiCell.eNodeB1.sctp "Number of Gap Acked Chunks in Last SACK 30:10.0.4.2" ETV
vector 224 MultiCell.eNodeB1.sctp "Number of Non-Revokable Gap Acked Chunks in Last SACK 30:10.0.4.2" ETV
vector 225 MultiCell.eNodeB1.sctp "Number of Gap Missed Chunks in Last SACK 30:10.0.4.2" ETV
vector 226 MultiCell.eNodeB1.sctp "Number of Gap Acked Chunks in Last SACK 30:10.0.5.2" ETV
vector 227 MultiCell.eNodeB1.sctp "Number of Non-Revokable Gap Acked Chunks in Last SACK 30:10.0.5.2" ETV
vector 228 MultiCell.eNodeB1.sctp "Number of Gap Missed Chunks in Last SACK 30:10.0.5.2" ETV
vector 229 MultiCell.eNodeB1.sctp "Number of Gap Acked Chunks in Last SACK 30:10.0.7.1" ETV
vector 230 MultiCell.eNodeB1.sctp "Number of Non-Revokable Gap Acked Chunks in Last SACK 30:10.0.7.1" ETV
vector 231 MultiCell.eNodeB1.sctp "Number of Gap Missed Chunks in Last SACK 30:10.0.7.1" ETV
vector 232 MultiCell.eNodeB1.sctp "Arwnd in Last SACK 27" ETV
vector 233 MultiCell.eNodeB1.sctp "TSN PseudoCumAck 30:10.0.5.2" ETV
vector 234 MultiCell.eNodeB1.sctp "TSN RTXPseudoCumAck 30:10.0.5.2" ETV
vector 235 MultiCell.eNodeB1.sctp "Partial Bytes Acked 30:10.0.5.2" ETV
vector 236 MultiCell.eNodeB2.sctp "SendQueue of Association 29" ETV
vector 237 MultiCell.eNodeB2.sctp "TSN Sent 29:10.0.5.1" ETV
vector 238 MultiCell.eNodeB2.sctp "Outstanding Bytes 29:10.0.5.1" ETV
vector 239 MultiCell.eNodeB2.sctp "Outstanding Bytes 28:Total" ETV
vector 240 MultiCell.eNodeB2.sctp "Queued Sent Bytes 29:10.0.5.1" ETV
vector 241 MultiCell.eNodeB2.sctp "Queued Sent Bytes 28:Total" ETV
vector 242 MultiCell.eNodeB1.sctp "TSN Received 4:10.0.5.2" ETV
vector 243 MultiCell.eNodeB1.sctp "Stream 0 Throughput" ETV
vector 244 MultiCell.eNodeB1.sctp "Queued Received Bytes 4:Total" ETV
vector 245 MultiCell.eNodeB1.sctp "Advertised Receiver Window 4" ETV
vector 246 MultiCell.eNodeB1.sctp "Number of Total Gap Blocks Stored 4" ETV
vector 247 MultiCell.eNodeB1.sctp "Number of Revokable Gap Blocks Stored 4" ETV
vector 248 MultiCell.eNodeB1.sctp "Number of Non-Revokable Gap Blocks Stored 4" ETV
vector 249 MultiCell.eNodeB1.sctp "Number of Duplicate TSNs Stored 4" ETV
vector 250 MultiCell.eNodeB1.sctp "Length of SACK Sent 4" ETV
vector 251 MultiCell.eNodeB1.sctp "Number of Revokable Gap Blocks Sent 4" ETV
vector 252 MultiCell.eNodeB1.sctp "Number of Non-Revokable Gap Blocks Sent 4" ETV
vector 253 MultiCell.eNodeB1.sctp "Number of Duplicate TSNs Sent 4" ETV
vector 254 MultiCell.eNodeB1.sctp "End to End Delay of Association 4" ETV
vector 255 MultiCell.eNodeB1.x2App[0].client packetReceived:vector(packetBytes) ETV
attr interpolationmode none
attr recordingmode vector(packetBytes)
attr source packetReceived
attr title "packets received, packetBytes"
vector 256 MultiCell.eNodeB2.sctp "Number of Gap Blocks in Last SACK of Association 29" ETV
vector 257 MultiCell.eNodeB2.sctp "Number of Revokable Gap Blocks in SACK 28" ETV
vector 258 MultiCell.eNodeB2.sctp "Number of Non-Revokable Gap Blocks in SACK 28" ETV
vector 259 MultiCell.eNodeB2.sctp "TSN Acked CumAck 29:10.0.5.1" ETV
vector 260 MultiCell.eNodeB2.sctp "Number of Gap Acked Chunks in Last SACK 29:10.0.1.2" ETV
vector 261 MultiCell.eNodeB2.sctp "Number of Non-Revokable Gap Acked Chunks in Last SACK 29:10.0.1.2" ETV
vector 262 MultiCell.eNodeB2.sctp "Number of Gap Missed Chunks in Last SACK 29:10.0.1.2" ETV
vector 263 MultiCell.eNodeB2.sctp "Number of Gap Acked Chunks in Last SACK 29:10.0.4.1" ETV
vector 264 MultiCell.eNodeB2.sctp "Number of Non-Revokable Gap Acked Chunks in Last SACK 29:10.0.4.1" ETV
vector 265 MultiCell.eNodeB2.sctp "Number of Gap Missed Chunks in Last SACK 29:10.0.4.1" ETV
vector 266 MultiCell.eNodeB2.sctp "Number of Gap Acked Chunks in Last SACK 29:10.0.5.1" ETV
vector 267 MultiCell.eNodeB2.sctp "Number of Non-Revokable Gap Acked Chunks in Last SACK 29:10.0.5.1" ETV
vector 268 MultiCell.eNodeB2.sctp "Number of Gap Missed Chunks in Last SACK 29:10.0.5.1" ETV
vector 269 MultiCell.eNodeB2.sctp "Number of Gap Acked Chunks in Last SACK 29:10.0.6.1" ETV
vector 270 MultiCell.eNodeB2.sctp "Number of Non-Revokable Gap Acked Chunks in Last SACK 29:10.0.6.1" ETV
vector 271 MultiCell.eNodeB2.sctp "Number of Gap Missed Chunks in Last SACK 29:10.0.6.1" ETV
vector 272 MultiCell.eNodeB2.sctp "Arwnd in Last SACK 28" ETV
vector 273 MultiCell.eNodeB2.sctp "TSN PseudoCumAck 29:10.0.5.1" ETV
vector 274 MultiCell.eNodeB2.sctp "TSN RTXPseudoCumAck 29:10.0.5.1" ETV
vector 275 MultiCell.eNodeB2.sctp "Partial Bytes Acked 29:10.0.5.1" ETV
0	0	0	0
1	0	0	0
2	0	0	0
3	0	0	0
4	0	0	0
5	0	0	0
6	0	0	0
7	0	0	0
8	0	0	0
9	0	0	0
10	0	0	0
11	0	0	0
12	0	0	0
13	0	0	0
13	30	0	1
13	42	0.0000000792	0
13	53	0.0000001292	1
13	55	0.0000002724	0
13	64	0.0000003224	1
13	66	0.0000004208	0
13	89	0.0000004708	1
13	97	0.0000005148	0
13	97	0.0000005148	1
13	99	0.0000005588	0
13	99	0.0000005588	1
13	111	0.0000006028	0
13	111	0.0000006028	1
13	123	0.0000006372	0
13	123	0.0000006372	1
13	135	0.0000006812	0
13	135	0.0000006812	1
13	157	0.0000007252	0
13	157	0.0000007252	1
13	165	0.0000007692	0
13	165	0.0000007692	1
13	173	0.0000008132	0
13	173	0.0000008132	1
13	181	0.0000008572	0
13	181	0.0000008572	1
13	193	0.0000009012	0
13	193	0.0000009012	1
13	205	0.0000009452	0
13	205	0.0000009452	1
13	217	0.0000009892	0
13	217	0.0000009892	1
13	225	0.0000010332	0
13	21647	2.00001	1
13	21648	2.0000100568	0
13	22204	2.0500101068	1
13	22208	2.0500101508	0
13	53787	5.00001	1
13	53788	5.0000100568	0
13	56485	5.2500101068	1
13	56486	5.2500101508	0
14	0	0	0
15	0	0	0
16	0	0	0
17	0	0	0
18	0	0	0
19	0	0	0
19	31	0	1
19	43	0.0000000792	0
19	52	0.0000001292	1
19	54	0.0000002724	0
19	65	0.0000003224	1
19	67	0.0000004208	0
19	84	0.0000004708	1
19	96	0.0000005148	0
19	96	0.0000005148	1
19	98	0.0000005588	0
19	98	0.0000005588	1
19	110	0.0000006028	0
19	110	0.0000006028	1
19	122	0.0000006372	0
19	122	0.0000006372	1
19	134	0.0000006812	0
19	134	0.0000006812	1
19	156	0.0000007252	0
19	156	0.0000007252	1
19	164	0.0000007692	0
19	164	0.0000007692	1
19	172	0.0000008132	0
19	172	0.0000008132	1
19	180	0.0000008572	0
19	180	0.0000008572	1
19	192	0.0000009012	0
19	192	0.0000009012	1
19	204	0.0000009452	0
19	204	0.0000009452	1
19	216	0.0000009892	0
19	216	0.0000009892	1
19	224	0.0000010332	0
19	21655	2.0000101068	1
19	21659	2.0000101508	0
19	22196	2.05001	1
19	22197	2.0500100568	0
19	54330	5.05001	1
19	54331	5.0500100568	0
19	55946	5.2000101068	1
19	55947	5.2000101508	0
20	0	0	0
21	0	0	0
22	0	0	0
23	0	0	0
24	0	0	0
25	0	0	0
26	0	0	0
27	0	0	0
28	0	0	0
29	0	0	0
30	0	0	0
31	0	0	0
32	0	0	0
33	0	0	0
34	0	0	0
35	0	0	0
36	0	0	1
36	22191	2.05001	2
37	0	0	1
37	54325	5.05001	2
38	0	0	2
39	0	0	2
40	14	0	0
40	21662	2.0000102008	0.16799914313717
40	55950	5.2000102008	0.00875
41	19	0	0
41	22211	2.0500102008	0.16390162344991
41	56489	5.2500102008	0.00875
42	22	0	0
42	22200	2.0500101068	0.16390163096536
42	54334	5.0500101068	0.014666666666667
43	22	0	0
44	23	0	0
44	21651	2.0000101068	0.16799915103309
44	53791	5.0000101068	0.014666666666667
45	23	0	0
46	30	0	736
46	53	0.0000001292	1376
46	64	0.0000003224	928
46	89	0.0000004708	384
46	90	0.0000004708	384
46	91	0.0000004708	384
46	93	0.0000004708	288
46	108	0.0000005648	384
46	120	0.0000006088	384
46	132	0.0000006528	384
46	150	0.0000006872	384
46	151	0.0000006872	384
46	152	0.0000006872	384
46	190	0.0000008632	384
46	202	0.0000009072	384
46	214	0.0000009512	384
46	21647	2.00001	512
46	22204	2.0500101068	384
46	53787	5.00001	512
46	56485	5.2500101068	384
47	30	0	0
47	53	0.0000001292	0
47	64	0.0000003224	0
47	89	0.0000004708	0
47	97	0.0000005148	4.4e-08
47	99	0.0000005588	8.8e-08
47	111	0.0000006028	1.32e-07
47	123	0.0000006372	7.24e-08
47	135	0.0000006812	7.24e-08
47	157	0.0000007252	7.24e-08
47	165	0.0000007692	8.2e-08
47	173	0.0000008132	1.26e-07
47	181	0.0000008572	1.7e-07
47	193	0.0000009012	3.8e-08
47	205	0.0000009452	3.8e-08
47	217	0.0000009892	3.8e-08
47	21647	2.00001	0
47	22204	2.0500101068	0
47	53787	5.00001	0
47	56485	5.2500101068	0
48	30	0	736
48	53	0.0000001292	1376
48	64	0.0000003224	928
48	89	0.0000004708	384
48	97	0.0000005148	384
48	99	0.0000005588	384
48	111	0.0000006028	288
48	123	0.0000006372	384
48	135	0.0000006812	384
48	157	0.0000007252	384
48	165	0.0000007692	384
48	173	0.0000008132	384
48	181	0.0000008572	384
48	193	0.0000009012	384
48	205	0.0000009452	384
48	217	0.0000009892	384
48	21647	2.00001	512
48	22204	2.0500101068	384
48	53787	5.00001	512
48	56485	5.2500101068	384
49	30	0	99
49	53	0.0000001292	179
49	64	0.0000003224	123
49	89	0.0000004708	55
49	97	0.0000005148	55
49	99	0.0000005588	55
49	111	0.0000006028	43
49	123	0.0000006372	55
49	135	0.0000006812	55
49	157	0.0000007252	55
49	165	0.0000007692	55
49	173	0.0000008132	55
49	181	0.0000008572	55
49	193	0.0000009012	55
49	205	0.0000009452	55
49	217	0.0000009892	55
49	21647	2.00001	71
49	22204	2.0500101068	55
49	53787	5.00001	71
49	56485	5.2500101068	55
50	30	0	0
50	53	0.0000001292	0
50	64	0.0000003224	0
50	89	0.0000004708	0
50	90	0.0000004708	1
50	91	0.0000004708	2
50	93	0.0000004708	3
50	97	0.0000005148	2
50	99	0.0000005588	1
50	108	0.0000005648	2
50	111	0.0000006028	1
50	120	0.0000006088	2
50	123	0.0000006372	1
50	132	0.0000006528	2
50	135	0.0000006812	1
50	150	0.0000006872	2
50	151	0.0000006872	3
50	152	0.0000006872	4
50	157	0.0000007252	3
50	165	0.0000007692	2
50	173	0.0000008132	1
50	181	0.0000008572	0
50	190	0.0000008632	1
50	193	0.0000009012	0
50	202	0.0000009072	1
50	205	0.0000009452	0
50	214	0.0000009512	1
50	217	0.0000009892	0
50	21647	2.00001	0
50	22204	2.0500101068	0
50	53787	5.00001	0
50	56485	5.2500101068	0
51	30	0	0
51	53	0.0000001292	0
51	64	0.0000003224	0
51	89	0.0000004708	0
51	90	0.0000004708	384
51	91	0.0000004708	768
51	93	0.0000004708	1056
51	97	0.0000005148	672
51	99	0.0000005588	288
51	108	0.0000005648	672
51	111	0.0000006028	384
51	120	0.0000006088	768
51	123	0.0000006372	384
51	132	0.0000006528	768
51	135	0.0000006812	384
51	150	0.0000006872	768
51	151	0.0000006872	1152
51	152	0.0000006872	1536
51	157	0.0000007252	1152
51	165	0.0000007692	768
51	173	0.0000008132	384
51	181	0.0000008572	0
51	190	0.0000008632	384
51	193	0.0000009012	0
51	202	0.0000009072	384
51	205	0.0000009452	0
51	214	0.0000009512	384
51	217	0.0000009892	0
51	21647	2.00001	0
51	22204	2.0500101068	0
51	53787	5.00001	0
51	56485	5.2500101068	0
52	31	0	736
52	52	0.0000001292	1376
52	65	0.0000003224	928
52	84	0.0000004708	384
52	85	0.0000004708	384
52	86	0.0000004708	384
52	88	0.0000004708	288
52	109	0.0000005648	384
52	121	0.0000006088	384
52	133	0.0000006528	384
52	153	0.0000006872	384
52	154	0.0000006872	384
52	155	0.0000006872	384
52	191	0.0000008632	384
52	203	0.0000009072	384
52	215	0.0000009512	384
52	21655	2.0000101068	384
52	22196	2.05001	512
52	54330	5.05001	512
52	55946	5.2000101068	384
53	31	0	0
53	52	0.0000001292	0
53	65	0.0000003224	0
53	84	0.0000004708	0
53	96	0.0000005148	4.4e-08
53	98	0.0000005588	8.8e-08
53	110	0.0000006028	1.32e-07
53	122	0.0000006372	7.24e-08
53	134	0.0000006812	7.24e-08
53	156	0.0000007252	7.24e-08
53	164	0.0000007692	8.2e-08
53	172	0.0000008132	1.26e-07
53	180	0.0000008572	1.7e-07
53	192	0.0000009012	3.8e-08
53	204	0.0000009452	3.8e-08
53	216	0.0000009892	3.8e-08
53	21655	2.0000101068	0
53	22196	2.05001	0
53	54330	5.05001	0
53	55946	5.2000101068	0
54	31	0	736
54	52	0.0000001292	1376
54	65	0.0000003224	928
54	84	0.0000004708	384
54	96	0.0000005148	384
54	98	0.0000005588	384
54	110	0.0000006028	288
54	122	0.0000006372	384
54	134	0.0000006812	384
54	156	0.0000007252	384
54	164	0.0000007692	384
54	172	0.0000008132	384
54	180	0.0000008572	384
54	192	0.0000009012	384
54	204	0.0000009452	384
54	216	0.0000009892	384
54	21655	2.0000101068	384
54	22196	2.05001	512
54	54330	5.05001	512
54	55946	5.2000101068	384
55	31	0	99
55	52	0.0000001292	179
55	65	0.0000003224	123
55	84	0.0000004708	55
55	96	0.0000005148	55
55	98	0.0000005588	55
55	110	0.0000006028	43
55	122	0.0000006372	55
55	134	0.0000006812	55
55	156	0.0000007252	55
55	164	0.0000007692	55
55	172	0.0000008132	55
55	180	0.0000008572	55
55	192	0.0000009012	55
55	204	0.0000009452	55
55	216	0.0000009892	55
55	21655	2.0000101068	55
55	22196	2.05001	71
55	54330	5.05001	71
55	55946	5.2000101068	55
56	31	0	0
56	52	0.0000001292	0
56	65	0.0000003224	0
56	84	0.0000004708	0
56	85	0.0000004708	1
56	86	0.0000004708	2
56	88	0.0000004708	3
56	96	0.0000005148	2
56	98	0.0000005588	1
56	109	0.0000005648	2
56	110	0.0000006028	1
56	121	0.0000006088	2
56	122	0.0000006372	1
56	133	0.0000006528	2
56	134	0.0000006812	1
56	153	0.0000006872	2
56	154	0.0000006872	3
56	155	0.0000006872	4
56	156	0.0000007252	3
56	164	0.0000007692	2
56	172	0.0000008132	1
56	180	0.0000008572	0
56	191	0.0000008632	1
56	192	0.0000009012	0
56	203	0.0000009072	1
56	204	0.0000009452	0
56	215	0.0000009512	1
56	216	0.0000009892	0
56	21655	2.0000101068	0
56	22196	2.05001	0
56	54330	5.05001	0
56	55946	5.2000101068	0
57	31	0	0
57	52	0.0000001292	0
57	65	0.0000003224	0
57	84	0.0000004708	0
57	85	0.0000004708	384
57	86	0.0000004708	768
57	88	0.0000004708	1056
57	96	0.0000005148	672
57	98	0.0000005588	288
57	109	0.0000005648	672
57	110	0.0000006028	384
57	121	0.0000006088	768
57	122	0.0000006372	384
57	133	0.0000006528	768
57	134	0.0000006812	384
57	153	0.0000006872	768
57	154	0.0000006872	1152
57	155	0.0000006872	1536
57	156	0.0000007252	1152
57	164	0.0000007692	768
57	172	0.0000008132	384
57	180	0.0000008572	0
57	191	0.0000008632	384
57	192	0.0000009012	0
57	203	0.0000009072	384
57	204	0.0000009452	0
57	215	0.0000009512	384
57	216	0.0000009892	0
57	21655	2.0000101068	0
57	22196	2.05001	0
57	54330	5.05001	0
57	55946	5.2000101068	0
58	33	0	58.309518948453
58	38	0	58.309518948453
58	10929	1	67.082039324994
58	10934	1	50
58	21633	2	76.157731058639
58	21638	2	42.426406871193
58	32367	3	85.440037453175
58	32372	3	36.05551275464
58	43069	4	94.868329805051
58	43074	4	31.622776601684
58	53773	5	104.40306508911
58	53778	5	30
58	64509	6	114.01754250991
58	64514	6	31.622776601684
58	75211	7	123.69316876853
58	75216	7	36.05551275464
58	85915	8	133.41664064126
58	85920	8	42.426406871193
58	96607	9	143.17821063276
58	96612	9	50
58	107307	10	152.97058540778
58	107312	10	58.309518948453
58	118011	11	143.17821063276
58	118016	11	50
59	34	0	36.05551275464
59	39	0	85.440037453175
59	10930	1	42.426406871193
59	10935	1	76.157731058639
59	21634	2	50
59	21639	2	67.082039324994
59	32368	3	58.309518948453
59	32373	3	58.309518948453
59	43070	4	67.082039324994
59	43075	4	50
59	53774	5	76.157731058639
59	53779	5	42.426406871193
59	64510	6	85.440037453175
59	64515	6	36.05551275464
59	75212	7	94.868329805051
59	75217	7	31.622776601684
59	85916	8	104.40306508911
59	85921	8	30
59	96608	9	114.01754250991
59	96613	9	31.622776601684
59	107308	10	123.69316876853
59	107313	10	36.05551275464
59	118012	11	133.41664064126
59	118017	11	42.426406871193
60	35	0	320.44677724228
60	40	0	232.63941646845
60	10931	1	320.44677724228
60	10936	1	232.63941646845
60	21635	2	320.44677724228
60	21640	2	232.63941646845
60	32369	3	320.44677724228
60	32374	3	232.63941646845
60	43071	4	320.44677724228
60	43076	4	232.63941646845
60	53775	5	320.44677724228
60	53780	5	232.63941646845
60	64511	6	320.44677724228
60	64516	6	232.63941646845
60	75213	7	320.44677724228
60	75218	7	232.63941646845
60	85917	8	320.44677724228
60	85922	8	232.63941646845
60	96609	9	320.44677724228
60	96614	9	232.63941646845
60	107309	10	320.44677724228
60	107314	10	232.63941646845
60	118013	11	320.44677724228
60	118018	11	232.63941646845
61	36	0	309.55531834849
61	41	0	210.79643163181
61	10932	1	309.55531834849
61	10937	1	210.79643163181
61	21636	2	309.55531834849
61	21641	2	210.79643163181
61	32370	3	309.55531834849
61	32375	3	210.79643163181
61	43072	4	309.55531834849
61	43077	4	210.79643163181
61	53776	5	309.55531834849
61	53781	5	210.79643163181
61	64512	6	309.55531834849
61	64517	6	210.79643163181
61	75214	7	309.55531834849
61	75219	7	210.79643163181
61	85918	8	309.55531834849
61	85923	8	210.79643163181
61	96610	9	309.55531834849
61	96615	9	210.79643163181
61	107310	10	309.55531834849
61	107315	10	210.79643163181
61	118014	11	309.55531834849
61	118019	11	210.79643163181
62	44	0.0000001292	99
62	57	0.0000003224	179
62	68	0.0000004708	123
62	101	0.0000005648	55
62	113	0.0000006088	55
62	125	0.0000006528	55
62	137	0.0000006872	43
62	159	0.0000007312	55
62	167	0.0000007752	55
62	175	0.0000008192	55
62	183	0.0000008632	55
62	195	0.0000009072	55
62	207	0.0000009512	55
62	219	0.0000009952	55
62	227	0.0000010392	55
62	233	0.0000010832	55
62	21649	2.0000101068	71
62	22209	2.0500102008	55
62	53789	5.0000101068	71
62	56487	5.2500102008	55
63	44	0.0000001292	92
63	57	0.0000003224	172
63	68	0.0000004708	116
63	101	0.0000005648	48
63	113	0.0000006088	48
63	125	0.0000006528	48
63	137	0.0000006872	36
63	159	0.0000007312	48
63	167	0.0000007752	48
63	175	0.0000008192	48
63	183	0.0000008632	48
63	195	0.0000009072	48
63	207	0.0000009512	48
63	219	0.0000009952	48
63	227	0.0000010392	48
63	233	0.0000010832	48
63	21649	2.0000101068	64
63	22209	2.0500102008	48
63	53789	5.0000101068	64
63	56487	5.2500102008	48
64	45	0.0000001292	99
64	56	0.0000003224	179
64	69	0.0000004708	123
64	100	0.0000005648	55
64	112	0.0000006088	55
64	124	0.0000006528	55
64	136	0.0000006872	43
64	158	0.0000007312	55
64	166	0.0000007752	55
64	174	0.0000008192	55
64	182	0.0000008632	55
64	194	0.0000009072	55
64	206	0.0000009512	55
64	218	0.0000009952	55
64	226	0.0000010392	55
64	232	0.0000010832	55
64	21660	2.0000102008	55
64	22198	2.0500101068	71
64	54332	5.0500101068	71
64	55948	5.2000102008	55
65	45	0.0000001292	92
65	56	0.0000003224	172
65	69	0.0000004708	116
65	100	0.0000005648	48
65	112	0.0000006088	48
65	124	0.0000006528	48
65	136	0.0000006872	36
65	158	0.0000007312	48
65	166	0.0000007752	48
65	174	0.0000008192	48
65	182	0.0000008632	48
65	194	0.0000009072	48
65	206	0.0000009512	48
65	218	0.0000009952	48
65	226	0.0000010392	48
65	232	0.0000010832	48
65	21660	2.0000102008	48
65	22198	2.0500101068	64
65	54332	5.0500101068	64
65	55948	5.2000102008	48
66	48	0.0000001292	0
67	48	0.0000001292	65535
67	22211	2.0500102008	65520
67	56489	5.2500102008	65535
68	48	0.0000001292	0
69	48	0.0000001292	0
70	48	0.0000001292	0
71	48	0.0000001292	0
72	49	0.0000001292	0
73	49	0.0000001292	65535
73	21662	2.0000102008	65520
73	55950	5.2000102008	65535
74	49	0.0000001292	0
75	49	0.0000001292	0
76	49	0.0000001292	0
77	49	0.0000001292	0
78	60	0.0000003224	65535
79	60	0.0000003224	0
80	60	0.0000003224	0
81	60	0.0000003224	0
82	61	0.0000003224	65535
83	61	0.0000003224	0
84	61	0.0000003224	0
85	61	0.0000003224	0
86	72	0.0000004708	65535
87	72	0.0000004708	8940
88	72	0.0000004708	0.3725
89	72	0.0000004708	1
90	72	0.0000004708	3
91	72	0.0000004708	65535
92	72	0.0000004708	8940
93	72	0.0000004708	0.3725
94	72	0.0000004708	1
95	72	0.0000004708	3
96	72	0.0000004708	65535
96	32917	3.05001	65535
96	65059	6.05001	65535
97	72	0.0000004708	8940
97	32917	3.05001	8940
97	65059	6.05001	8940
98	72	0.0000004708	0.3725
98	32917	3.05001	inf
98	65059	6.05001	44.7
99	72	0.0000004708	3
99	163	0.0000007312	1
99	22211	2.0500102008	1
99	56489	5.2500102008	1
100	72	0.0000004708	65535
101	72	0.0000004708	8940
102	72	0.0000004708	0.3725
103	72	0.0000004708	1
104	72	0.0000004708	3
105	73	0.0000004708	65535
106	73	0.0000004708	8940
107	73	0.0000004708	0.3725
108	73	0.0000004708	1
109	73	0.0000004708	3
110	73	0.0000004708	65535
111	73	0.0000004708	8940
112	73	0.0000004708	0.3725
113	73	0.0000004708	1
114	73	0.0000004708	3
115	73	0.0000004708	65535
115	32376	3.00001	65535
115	64518	6.00001	65535
116	73	0.0000004708	8940
116	32376	3.00001	8940
116	64518	6.00001	8940
117	73	0.0000004708	0.3725
117	32376	3.00001	inf
117	64518	6.00001	44.7
118	73	0.0000004708	3
118	162	0.0000007312	1
118	21662	2.0000102008	1
118	55950	5.2000102008	1
119	73	0.0000004708	65535
120	73	0.0000004708	8940
121	73	0.0000004708	0.3725
122	73	0.0000004708	1
123	73	0.0000004708	3
124	104	0.0000005648	1
124	116	0.0000006088	2
124	128	0.0000006528	3
125	104	0.0000005648	1
125	116	0.0000006088	2
125	128	0.0000006528	3
126	105	0.0000005648	1
126	117	0.0000006088	2
126	129	0.0000006528	3
127	105	0.0000005648	1
127	117	0.0000006088	2
127	129	0.0000006528	3
128	140	0.0000006872	65535
129	140	0.0000006872	8940
130	140	0.0000006872	0.3725
131	140	0.0000006872	1
132	140	0.0000006872	3
133	140	0.0000006872	65535
134	140	0.0000006872	8940
135	140	0.0000006872	0.3725
136	140	0.0000006872	1
137	140	0.0000006872	3
138	140	0.0000006872	65535
139	140	0.0000006872	8940
140	140	0.0000006872	0.3725
141	140	0.0000006872	3
141	222	0.0000009952	1
142	140	0.0000006872	65535
143	140	0.0000006872	8940
144	140	0.0000006872	0.3725
145	140	0.0000006872	1
146	140	0.0000006872	3
147	141	0.0000006872	65535
148	141	0.0000006872	8940
149	141	0.0000006872	0.3725
150	141	0.0000006872	1
151	141	0.0000006872	3
152	141	0.0000006872	65535
153	141	0.0000006872	8940
154	141	0.0000006872	0.3725
155	141	0.0000006872	1
156	141	0.0000006872	3
157	141	0.0000006872	65535
158	141	0.0000006872	8940
159	141	0.0000006872	0.3725
160	141	0.0000006872	3
160	223	0.0000009952	1
161	141	0.0000006872	65535
162	141	0.0000006872	8940
163	141	0.0000006872	0.3725
164	141	0.0000006872	1
165	141	0.0000006872	3
166	162	0.0000007312	1
166	170	0.0000007752	2
166	178	0.0000008192	3
167	162	0.0000007312	2.604e-07
167	21662	2.0000102008	2.008e-07
167	55950	5.2000102008	0.2000002008
168	163	0.0000007312	1
168	171	0.0000007752	2
168	179	0.0000008192	3
169	163	0.0000007312	2.604e-07
169	22211	2.0500102008	2.008e-07
169	56489	5.2500102008	0.2000002008
170	186	0.0000008632	1
170	198	0.0000009072	2
170	210	0.0000009512	3
171	186	0.0000008632	1
171	198	0.0000009072	2
171	210	0.0000009512	3
172	187	0.0000008632	1
172	199	0.0000009072	2
172	211	0.0000009512	3
173	187	0.0000008632	1
173	199	0.0000009072	2
173	211	0.0000009512	3
174	222	0.0000009952	1
174	230	0.0000010392	2
174	236	0.0000010832	3
175	222	0.0000009952	3.08e-07
176	223	0.0000009952	1
176	231	0.0000010392	2
176	237	0.0000010832	3
177	223	0.0000009952	3.08e-07
178	242	0.001	0
178	250	0.002	0
178	266	0.003	0
178	274	0.004	0
178	282	0.005	0
178	294	0.006	0
178	306	0.007	0
178	314	0.008	0
178	330	0.009	0
178	338	0.01	0
178	346	0.011	0
178	358	0.012	0
178	370	0.013	0
178	378	0.014	0
178	394	0.015	0
178	402	0.016	0
178	410	0.017	0
178	422	0.018	0
178	434	0.019	0
178	442	0.02	0
178	458	0.021	0
178	466	0.022	0
178	474	0.023	0
178	486	0.024	0
178	498	0.025	0
178	506	0.026	0
178	522	0.027	0
178	530	0.028	0
178	538	0.029	0
178	550	0.03	0
178	562	0.031	0
178	570	0.032	0
178	586	0.033	0
178	594	0.034	0
178	602	0.035	0
178	614	0.036	0
178	626	0.037	0
178	634	0.038	0
178	650	0.039	0
178	658	0.04	0
178	666	0.041	0
178	678	0.042	0
178	690	0.043	0
178	698	0.044	0
178	714	0.045	0
178	722	0.046	0
178	730	0.047	0
178	742	0.048	0
178	754	0.049	0
178	762	0.05	0
178	778	0.051	0
178	786	0.052	0
178	794	0.053	0
178	806	0.054	0
178	818	0.055	0
178	826	0.056	0
178	842	0.057	0
178	850	0.058	0
178	858	0.059	0
178	870	0.06	0
178	882	0.061	0
178	890	0.062	0
178	906	0.063	0
178	914	0.064	0
178	922	0.065	0
178	934	0.066	0
178	946	0.067	0
178	954	0.068	0
178	970	0.069	0
178	978	0.07	0
178	986	0.071	0
178	998	0.072	0
178	1010	0.073	0
178	1018	0.074	0
178	1034	0.075	0
178	1042	0.076	0
178	1050	0.077	0
178	1062	0.078	0
178	1074	0.079	0
178	1082	0.08	0
178	1098	0.081	0
178	1106	0.082	0
178	1114	0.083	0
178	1126	0.084	0
178	1138	0.085	0
178	1146	0.086	0
178	1162	0.087	0
178	1170	0.088	0
178	1178	0.089	0
178	1190	0.09	0
178	1202	0.091	0
178	1210	0.092	0
178	1226	0.093	0
178	1234	0.094	0
178	1242	0.095	0
178	1254	0.096	0
178	1266	0.097	0
178	1274	0.098	0
178	1290	0.099	0
178	1300	0.1	0
178	1308	0.101	0
178	1320	0.102	0
178	1332	0.103	0
178	1340	0.104	0
178	1356	0.105	0
178	1364	0.106	0
178	1372	0.107	0
178	1384	0.108	0
178	1396	0.109	0
178	1404	0.11	0
178	1420	0.111	0
178	1428	0.112	0
178	1436	0.113	0
178	1448	0.114	0
178	1460	0.115	0
178	1468	0.116	0
178	1484	0.117	0
178	1492	0.118	0
178	1500	0.119	0
178	1512	0.12	0
178	1524	0.121	0
178	1532	0.122	0
178	1548	0.123	0
178	1556	0.124	0
178	1564	0.125	0
178	1576	0.126	0
178	1588	0.127	0
178	1596	0.128	0
178	1612	0.129	0
178	1620	0.13	0
178	1628	0.131	0
178	1640	0.132	0
178	1652	0.133	0
178	1660	0.134	0
178	1676	0.135	0
178	1684	0.136	0
178	1692	0.137	0
178	1704	0.138	0
178	1716	0.139	0
178	1724	0.14	0
178	1740	0.141	0
178	1748	0.142	0
178	1756	0.143	0
178	1768	0.144	0
178	1780	0.145	0
178	1788	0.146	0
178	1804	0.147	0
178	1812	0.148	0
178	1820	0.149	0
178	1832	0.15	0
178	1844	0.151	0
178	1852	0.152	0
178	1868	0.153	0
178	1876	0.154	0
178	1884	0.155	0
178	1896	0.156	0
178	1908	0.157	0
178	1916	0.158	0
178	1932	0.159	0
178	1940	0.16	0
178	1948	0.161	0
178	1960	0.162	0
178	1972	0.163	0
178	1980	0.164	0
178	1996	0.165	0
178	2004	0.166	0
178	2012	0.167	0
178	2024	0.168	0
178	2036	0.169	0
178	2044	0.17	0
178	2060	0.171	0
178	2068	0.172	0
178	2076	0.173	0
178	2088	0.174	0
178	2100	0.175	0
178	2108	0.176	0
178	2124	0.177	0
178	2132	0.178	0
178	2140	0.179	0
178	2152	0.18	0
178	2164	0.181	0
178	2172	0.182	0
178	2188	0.183	0
178	2196	0.184	0
178	2204	0.185	0
178	2216	0.186	0
178	2228	0.187	0
178	2236	0.188	0
178	2252	0.189	0
178	2260	0.19	0
178	2268	0.191	0
178	2280	0.192	0
178	2292	0.193	0
178	2300	0.194	0
178	2316	0.195	0
178	2324	0.196	0
178	2332	0.197	0
178	2344	0.198	0
178	2356	0.199	0
178	2366	0.2	0
178	2382	0.201	0
178	2390	0.202	0
178	2398	0.203	0
178	2410	0.204	0
178	2422	0.205	0
178	2430	0.206	0
178	2446	0.207	0
178	2454	0.208	0
178	2462	0.209	0
178	2474	0.21	0
178	2486	0.211	0
178	2494	0.212	0
178	2510	0.213	0
178	2518	0.214	0
178	2526	0.215	0
178	2538	0.216	0
178	2550	0.217	0
178	2558	0.218	0
178	2574	0.219	0
178	2582	0.22	0
178	2590	0.221	0
178	2602	0.222	0
178	2614	0.223	0
178	2622	0.224	0
178	2638	0.225	0
178	2646	0.226	0
178	2654	0.227	0
178	2666	0.228	0
178	2678	0.229	0
178	2686	0.23	0
178	2702	0.231	0
178	2710	0.232	0
178	2718	0.233	0
178	2730	0.234	0
178	2742	0.235	0
178	2750	0.236	0
178	2766	0.237	0
178	2774	0.238	0
178	2782	0.239	0
178	2794	0.24	0
178	2806	0.241	0
178	2814	0.242	0
178	2830	0.243	0
178	2838	0.244	0
178	2846	0.245	0
178	2858	0.246	0
178	2870	0.247	0
178	2878	0.248	0
178	2894	0.249	0
178	2902	0.25	0
178	2910	0.251	0
178	2922	0.252	0
178	2934	0.253	0
178	2942	0.254	0
178	2958	0.255	0
178	2966	0.256	0
178	2974	0.257	0
178	2986	0.258	0
178	2998	0.259	0
178	3006	0.26	0
178	3022	0.261	0
178	3030	0.262	0
178	3038	0.263	0
178	3050	0.264	0
178	3062	0.265	0
178	3070	0.266	0
178	3086	0.267	0
178	3094	0.268	0
178	3102	0.269	0
178	3114	0.27	0
178	3126	0.271	0
178	3134	0.272	0
178	3150	0.273	0
178	3158	0.274	0
178	3166	0.275	0
178	3178	0.276	0
178	3190	0.277	0
178	3198	0.278	0
178	3214	0.279	0
178	3222	0.28	0
178	3230	0.281	0
178	3242	0.282	0
178	3254	0.283	0
178	3262	0.284	0
178	3278	0.285	0
178	3286	0.286	0
178	3294	0.287	0
178	3306	0.288	0
178	3318	0.289	0
178	3326	0.29	0
178	3342	0.291	0
178	3350	0.292	0
178	3358	0.293	0
178	3370	0.294	0
178	3382	0.295	0
178	3390	0.296	0
178	3406	0.297	0
178	3414	0.298	0
178	3422	0.299	0
178	3436	0.3	0
178	3448	0.301	0
178	3456	0.302	0
178	3472	0.303	0
178	3480	0.304	0
178	3488	0.305	0
178	3500	0.306	0
178	3512	0.307	0
178	3520	0.308	0
178	3536	0.309	0
178	3544	0.31	0
178	3552	0.311	0
178	3564	0.312	0
178	3576	0.313	0
178	3584	0.314	0
178	3600	0.315	0
178	3608	0.316	0
178	3616	0.317	0
178	3628	0.318	0
178	3640	0.319	0
178	3648	0.32	0
178	3664	0.321	0
178	3672	0.322	0
178	3680	0.323	0
178	3692	0.324	0
178	3704	0.325	0
178	3712	0.326	0
178	3728	0.327	0
178	3736	0.328	0
178	3744	0.329	0
178	3756	0.33	0
178	3768	0.331	0
178	3776	0.332	0
178	3792	0.333	0
178	3800	0.334	0
178	3808	0.335	0
178	3820	0.336	0
178	3832	0.337	0
178	3840	0.338	0
178	3856	0.339	0
178	3864	0.34	0
178	3872	0.341	0
178	3884	0.342	0
178	3896	0.343	0
178	3904	0.344	0
178	3920	0.345	0
178	3928	0.346	0
178	3936	0.347	0
178	3948	0.348	0
178	3960	0.349	0
178	3968	0.35	0
178	3984	0.351	0
178	3992	0.352	0
178	4000	0.353	0
178	4012	0.354	0
178	4024	0.355	0
178	4032	0.356	0
178	4048	0.357	0
178	4056	0.358	0
178	4064	0.359	0
178	4076	0.36	0
178	4088	0.361	0
178	4096	0.362	0
178	4112	0.363	0
178	4120	0.364	0
178	4128	0.365	0
178	4140	0.366	0
178	4152	0.367	0
178	4160	0.368	0
178	4176	0.369	0
178	4184	0.37	0
178	4192	0.371	0
178	4204	0.372	0
178	4216	0.373	0
178	4224	0.374	0
178	4240	0.375	0
178	4248	0.376	0
178	4256	0.377	0
178	4268	0.378	0
178	4280	0.379	0
178	4288	0.38	0
178	4304	0.381	0
178	4312	0.382	0
178	4320	0.383	0
178	4332	0.384	0
178	4344	0.385	0
178	4352	0.386	0
178	4368	0.387	0
178	4376	0.388	0
178	4384	0.389	0
178	4396	0.39	0
178	4408	0.391	0
178	4416	0.392	0
178	4432	0.393	0
178	4440	0.394	0
178	4448	0.395	0
178	4460	0.396	0
178	4472	0.397	0
178	4480	0.398	0
178	4496	0.399	0
178	4506	0.4	0
178	4514	0.401	0
178	4526	0.402	0
178	4538	0.403	0
178	4546	0.404	0
178	4562	0.405	0
178	4570	0.406	0
178	4578	0.407	0
178	4590	0.408	0
178	4602	0.409	0
178	4610	0.41	0
178	4626	0.411	0
178	4634	0.412	0
178	4642	0.413	0
178	4654	0.414	0
178	4666	0.415	0
178	4674	0.416	0
178	4690	0.417	0
178	4698	0.418	0
178	4706	0.419	0
178	4718	0.42	0
178	4730	0.421	0
178	4738	0.422	0
178	4754	0.423	0
178	4762	0.424	0
178	4770	0.425	0
178	4782	0.426	0
178	4794	0.427	0
178	4802	0.428	0
178	4818	0.429	0
178	4826	0.43	0
178	4834	0.431	0
178	4846	0.432	0
178	4858	0.433	0
178	4866	0.434	0
178	4882	0.435	0
178	4890	0.436	0
178	4898	0.437	0
178	4910	0.438	0
178	4922	0.439	0
178	4930	0.44	0
178	4946	0.441	0
178	4954	0.442	0
178	4962	0.443	0
178	4974	0.444	0
178	4986	0.445	0
178	4994	0.446	0
178	5010	0.447	0
178	5018	0.448	0
178	5026	0.449	0
178	5038	0.45	0
178	5050	0.451	0
178	5058	0.452	0
178	5074	0.453	0
178	5082	0.454	0
178	5090	0.455	0
178	5102	0.456	0
178	5114	0.457	0
178	5122	0.458	0
178	5138	0.459	0
178	5146	0.46	0
178	5154	0.461	0
178	5166	0.462	0
178	5178	0.463	0
178	5186	0.464	0
178	5202	0.465	0
178	5210	0.466	0
178	5218	0.467	0
178	5230	0.468	0
178	5242	0.469	0
178	5250	0.47	0
178	5266	0.471	0
178	5274	0.472	0
178	5282	0.473	0
178	5294	0.474	0
178	5306	0.475	0
178	5314	0.476	0
178	5330	0.477	0
178	5338	0.478	0
178	5346	0.479	0
178	5358	0.48	0
178	5370	0.481	0
178	5378	0.482	0
178	5394	0.483	0
178	5402	0.484	0
178	5410	0.485	0
178	5422	0.486	0
178	5434	0.487	0
178	5442	0.488	0
178	5458	0.489	0
178	5466	0.49	0
178	5474	0.491	0
178	5486	0.492	0
178	5498	0.493	0
178	5506	0.494	0
178	5522	0.495	0
178	5530	0.496	0
178	5538	0.497	0
178	5550	0.498	0
178	5562	0.499	0
178	5572	0.5	0
178	5588	0.501	0
178	5596	0.502	0
178	5604	0.503	0
178	5616	0.504	0
178	5628	0.505	0
178	5636	0.506	0
178	5652	0.507	0
178	5660	0.508	0
178	5668	0.509	0
178	5680	0.51	0
178	5692	0.511	0
178	5700	0.512	0
178	5716	0.513	0
178	5724	0.514	0
178	5732	0.515	0
178	5744	0.516	0
178	5756	0.517	0
178	5764	0.518	0
178	5780	0.519	0
178	5788	0.52	0
178	5796	0.521	0
178	5808	0.522	0
178	5820	0.523	0
178	5828	0.524	0
178	5844	0.525	0
178	5852	0.526	0
178	5860	0.527	0
178	5872	0.528	0
178	5884	0.529	0
178	5892	0.53	0
178	5908	0.531	0
178	5916	0.532	0
178	5924	0.533	0
178	5936	0.534	0
178	5948	0.535	0
178	5956	0.536	0
178	5972	0.537	0
178	5980	0.538	0
178	5988	0.539	0
178	6000	0.54	0
178	6012	0.541	0
178	6020	0.542	0
178	6036	0.543	0
178	6044	0.544	0
178	6052	0.545	0
178	6064	0.546	0
178	6076	0.547	0
178	6084	0.548	0
178	6100	0.549	0
178	6108	0.55	0
178	6116	0.551	0
178	6128	0.552	0
178	6140	0.553	0
178	6148	0.554	0
178	6164	0.555	0
178	6172	0.556	0
178	6180	0.557	0
178	6192	0.558	0
178	6204	0.559	0
178	6212	0.56	0
178	6228	0.561	0
178	6236	0.562	0
178	6244	0.563	0
178	6256	0.564	0
178	6268	0.565	0
178	6276	0.566	0
178	6292	0.567	0
178	6300	0.568	0
178	6308	0.569	0
178	6320	0.57	0
178	6332	0.571	0
178	6340	0.572	0
178	6356	0.573	0
178	6364	0.574	0
178	6372	0.575	0
178	6384	0.576	0
178	6396	0.577	0
178	6404	0.578	0
178	6420	0.579	0
178	6428	0.58	0
178	6436	0.581	0
178	6448	0.582	0
178	6460	0.583	0
178	6468	0.584	0
178	6484	0.585	0
178	6492	0.586	0
178	6500	0.587	0
178	6512	0.588	0
178	6524	0.589	0
178	6532	0.59	0
178	6548	0.591	0
178	6556	0.592	0
178	6564	0.593	0
178	6576	0.594	0
178	6588	0.595	0
178	6596	0.596	0
178	6612	0.597	0
178	6620	0.598	0
178	6628	0.599	0
178	6642	0.6	0
178	6654	0.601	0
178	6662	0.602	0
178	6678	0.603	0
178	6686	0.604	0
178	6694	0.605	0
178	6706	0.606	0
178	6718	0.607	0
178	6726	0.608	0
178	6742	0.609	0
178	6750	0.61	0
178	6758	0.611	0
178	6770	0.612	0
178	6782	0.613	0
178	6790	0.614	0
178	6806	0.615	0
178	6814	0.616	0
178	6822	0.617	0
178	6834	0.618	0
178	6846	0.619	0
178	6854	0.62	0
178	6870	0.621	0
178	6878	0.622	0
178	6886	0.623	0
178	6898	0.624	0
178	6910	0.625	0
178	6918	0.626	0
178	6934	0.627	0
178	6942	0.628	0
178	6950	0.629	0
178	6962	0.63	0
178	6974	0.631	0
178	6982	0.632	0
178	6998	0.633	0
178	7006	0.634	0
178	7014	0.635	0
178	7026	0.636	0
178	7038	0.637	0
178	7046	0.638	0
178	7062	0.639	0
178	7070	0.64	0
178	7078	0.641	0
178	7090	0.642	0
178	7102	0.643	0
178	7110	0.644	0
178	7126	0.645	0
178	7134	0.646	0
178	7142	0.647	0
178	7154	0.648	0
178	7166	0.649	0
178	7174	0.65	0
178	7190	0.651	0
178	7198	0.652	0
178	7206	0.653	0
178	7218	0.654	0
178	7230	0.655	0
178	7238	0.656	0
178	7254	0.657	0
178	7262	0.658	0
178	7270	0.659	0
178	7282	0.66	0
178	7294	0.661	0
178	7302	0.662	0
178	7318	0.663	0
178	7326	0.664	0
178	7334	0.665	0
178	7346	0.666	0
178	7358	0.667	0
178	7366	0.668	0
178	7382	0.669	0
178	7390	0.67	0
178	7398	0.671	0
178	7410	0.672	0
178	7422	0.673	0
178	7430	0.674	0
178	7446	0.675	0
178	7454	0.676	0
178	7462	0.677	0
178	7474	0.678	0
178	7486	0.679	0
178	7494	0.68	0
178	7510	0.681	0
178	7518	0.682	0
178	7526	0.683	0
178	7538	0.684	0
178	7550	0.685	0
178	7558	0.686	0
178	7574	0.687	0
178	7582	0.688	0
178	7590	0.689	0
178	7602	0.69	0
178	7614	0.691	0
178	7622	0.692	0
178	7638	0.693	0
178	7646	0.694	0
178	7654	0.695	0
178	7666	0.696	0
178	7678	0.697	0
178	7686	0.698	0
178	7702	0.699	0
178	7712	0.7	0
178	7720	0.701	0
178	7732	0.702	0
178	7744	0.703	0
178	7752	0.704	0
178	7768	0.705	0
178	7776	0.706	0
178	7784	0.707	0
178	7796	0.708	0
178	7808	0.709	0
178	7816	0.71	0
178	7832	0.711	0
178	7840	0.712	0
178	7848	0.713	0
178	7860	0.714	0
178	7872	0.715	0
178	7880	0.716	0
178	7896	0.717	0
178	7904	0.718	0
178	7912	0.719	0
178	7924	0.72	0
178	7936	0.721	0
178	7944	0.722	0
178	7960	0.723	0
178	7968	0.724	0
178	7976	0.725	0
178	7988	0.726	0
178	8000	0.727	0
178	8008	0.728	0
178	8024	0.729	0
178	8032	0.73	0
178	8040	0.731	0
178	8052	0.732	0
178	8064	0.733	0
178	8072	0.734	0
178	8088	0.735	0
178	8096	0.736	0
178	8104	0.737	0
178	8116	0.738	0
178	8128	0.739	0
178	8136	0.74	0
178	8152	0.741	0
178	8160	0.742	0
178	8168	0.743	0
178	8180	0.744	0
178	8192	0.745	0
178	8200	0.746	0
178	8216	0.747	0
178	8224	0.748	0
178	8232	0.749	0
178	8244	0.75	0
178	8256	0.751	0
178	8264	0.752	0
178	8280	0.753	0
178	8288	0.754	0
178	8296	0.755	0
178	8308	0.756	0
178	8320	0.757	0
178	8328	0.758	0
178	8344	0.759	0
178	8352	0.76	0
178	8360	0.761	0
178	8372	0.762	0
178	8384	0.763	0
178	8392	0.764	0
178	8408	0.765	0
178	8416	0.766	0
178	8424	0.767	0
178	8436	0.768	0
178	8448	0.769	0
178	8456	0.77	0
178	8472	0.771	0
178	8480	0.772	0
178	8488	0.773	0
178	8500	0.774	0
178	8512	0.775	0
178	8520	0.776	0
178	8536	0.777	0
178	8544	0.778	0
178	8552	0.779	0
178	8564	0.78	0
178	8576	0.781	0
178	8584	0.782	0
178	8600	0.783	0
178	8608	0.784	0
178	8616	0.785	0
178	8628	0.786	0
178	8640	0.787	0
178	8648	0.788	0
178	8664	0.789	0
178	8672	0.79	0
178	8680	0.791	0
178	8692	0.792	0
178	8704	0.793	0
178	8712	0.794	0
178	8728	0.795	0
178	8736	0.796	0
178	8744	0.797	0
178	8756	0.798	0
178	8768	0.799	0
178	8778	0.8	0
178	8794	0.801	0
178	8802	0.802	0
178	8810	0.803	0
178	8822	0.804	0
178	8834	0.805	0
178	8842	0.806	0
178	8858	0.807	0
178	8866	0.808	0
178	8874	0.809	0
178	8886	0.81	0
178	8898	0.811	0
178	8906	0.812	0
178	8922	0.813	0
178	8930	0.814	0
178	8938	0.815	0
178	8950	0.816	0
178	8962	0.817	0
178	8970	0.818	0
178	8986	0.819	0
178	8994	0.82	0
178	9002	0.821	0
178	9014	0.822	0
178	9026	0.823	0
178	9034	0.824	0
178	9050	0.825	0
178	9058	0.826	0
178	9066	0.827	0
178	9078	0.828	0
178	9090	0.829	0
178	9098	0.83	0
178	9114	0.831	0
178	9122	0.832	0
178	9130	0.833	0
178	9142	0.834	0
178	9154	0.835	0
178	9162	0.836	0
178	9178	0.837	0
178	9186	0.838	0
178	9194	0.839	0
178	9206	0.84	0
178	9218	0.841	0
178	9226	0.842	0
178	9242	0.843	0
178	9250	0.844	0
178	9258	0.845	0
178	9270	0.846	0
178	9282	0.847	0
178	9290	0.848	0
178	9306	0.849	0
178	9314	0.85	0
178	9322	0.851	0
178	9334	0.852	0
178	9346	0.853	0
178	9354	0.854	0
178	9370	0.855	0
178	9378	0.856	0
178	9386	0.857	0
178	9398	0.858	0
178	9410	0.859	0
178	9418	0.86	0
178	9434	0.861	0
178	9442	0.862	0
178	9450	0.863	0
178	9462	0.864	0
178	9474	0.865	0
178	9482	0.866	0
178	9498	0.867	0
178	9506	0.868	0
178	9514	0.869	0
178	9526	0.87	0
178	9538	0.871	0
178	9546	0.872	0
178	9562	0.873	0
178	9570	0.874	0
178	9578	0.875	0
178	9590	0.876	0
178	9602	0.877	0
178	9610	0.878	0
178	9626	0.879	0
178	9634	0.88	0
178	9642	0.881	0
178	9654	0.882	0
178	9666	0.883	0
178	9674	0.884	0
178	9690	0.885	0
178	9698	0.886	0
178	9706	0.887	0
178	9718	0.888	0
178	9730	0.889	0
178	9738	0.89	0
178	9754	0.891	0
178	9762	0.892	0
178	9770	0.893	0
178	9782	0.894	0
178	9794	0.895	0
178	9802	0.896	0
178	9818	0.897	0
178	9826	0.898	0
178	9834	0.899	0
178	9848	0.9	0
178	9860	0.901	0
178	9868	0.902	0
178	9884	0.903	0
178	9892	0.904	0
178	9900	0.905	0
178	9912	0.906	0
178	9924	0.907	0
178	9932	0.908	0
178	9948	0.909	0
178	9956	0.91	0
178	9964	0.911	0
178	9976	0.912	0
178	9988	0.913	0
178	9996	0.914	0
178	10012	0.915	0
178	10020	0.916	0
178	10028	0.917	0
178	10040	0.918	0
178	10052	0.919	0
178	10060	0.92	0
178	10076	0.921	0
178	10084	0.922	0
178	10092	0.923	0
178	10104	0.924	0
178	10116	0.925	0
178	10124	0.926	0
178	10140	0.927	0
178	10148	0.928	0
178	10156	0.929	0
178	10168	0.93	0
178	10180	0.931	0
178	10188	0.932	0
178	10204	0.933	0
178	10212	0.934	0
178	10220	0.935	0
178	10232	0.936	0
178	10244	0.937	0
178	10252	0.938	0
178	10268	0.939	0
178	10276	0.94	0
178	10284	0.941	0
178	10296	0.942	0
178	10308	0.943	0
178	10316	0.944	0
178	10332	0.945	0
178	10340	0.946	0
178	10348	0.947	0
178	10360	0.948	0
178	10372	0.949	0
178	10380	0.95	0
178	10396	0.951	0
178	10404	0.952	0
178	10412	0.953	0
178	10424	0.954	0
178	10436	0.955	0
178	10444	0.956	0
178	10460	0.957	0
178	10468	0.958	0
178	10476	0.959	0
178	10488	0.96	0
178	10500	0.961	0
178	10508	0.962	0
178	10524	0.963	0
178	10532	0.964	0
178	10540	0.965	0
178	10552	0.966	0
178	10564	0.967	0
178	10572	0.968	0
178	10588	0.969	0
178	10596	0.97	0
178	10604	0.971	0
178	10616	0.972	0
178	10628	0.973	0
178	10636	0.974	0
178	10652	0.975	0
178	10660	0.976	0
178	10668	0.977	0
178	10680	0.978	0
178	10692	0.979	0
178	10700	0.98	0
178	10716	0.981	0
178	10724	0.982	0
178	10732	0.983	0
178	10744	0.984	0
178	10756	0.985	0
178	10764	0.986	0
178	10780	0.987	0
178	10788	0.988	0
178	10796	0.989	0
178	10808	0.99	0
178	10820	0.991	0
178	10828	0.992	0
178	10844	0.993	0
178	10852	0.994	0
178	10860	0.995	0
178	10872	0.996	0
178	10884	0.997	0
178	10892	0.998	0
178	10908	0.999	0
178	10920	1	0
178	10938	1.001	0
178	10950	1.002	0
178	10962	1.003	0
178	10970	1.004	0
178	10986	1.005	0
178	10994	1.006	0
178	11002	1.007	0
178	11014	1.008	0
178	11026	1.009	0
178	11034	1.01	0
178	11050	1.011	0
178	11058	1.012	0
178	11066	1.013	0
178	11078	1.014	0
178	11090	1.015	0
178	11098	1.016	0
178	11114	1.017	0
178	11122	1.018	0
178	11130	1.019	0
178	11142	1.02	0
178	11154	1.021	0
178	11162	1.022	0
178	11178	1.023	0
178	11186	1.024	0
178	11194	1.025	0
178	11206	1.026	0
178	11218	1.027	0
178	11226	1.028	0
178	11242	1.029	0
178	11250	1.03	0
178	11258	1.031	0
178	11270	1.032	0
178	11282	1.033	0
178	11290	1.034	0
178	11306	1.035	0
178	11314	1.036	0
178	11322	1.037	0
178	11334	1.038	0
178	11346	1.039	0
178	11354	1.04	0
178	11370	1.041	0
178	11378	1.042	0
178	11386	1.043	0
178	11398	1.044	0
178	11410	1.045	0
178	11418	1.046	0
178	11434	1.047	0
178	11442	1.048	0
178	11450	1.049	0
178	11462	1.05	0
178	11474	1.051	0
178	11482	1.052	0
178	11498	1.053	0
178	11506	1.054	0
178	11514	1.055	0
178	11526	1.056	0
178	11538	1.057	0
178	11546	1.058	0
178	11562	1.059	0
178	11570	1.06	0
178	11578	1.061	0
178	11590	1.062	0
178	11602	1.063	0
178	11610	1.064	0
178	11626	1.065	0
178	11634	1.066	0
178	11642	1.067	0
178	11654	1.068	0
178	11666	1.069	0
178	11674	1.07	0
178	11690	1.071	0
178	11698	1.072	0
178	11706	1.073	0
178	11718	1.074	0
178	11730	1.075	0
178	11738	1.076	0
178	11754	1.077	0
178	11762	1.078	0
178	11770	1.079	0
178	11782	1.08	0
178	11794	1.081	0
178	11802	1.082	0
178	11818	1.083	0
178	11826	1.084	0
178	11834	1.085	0
178	11846	1.086	0
178	11858	1.087	0
178	11866	1.088	0
178	11882	1.089	0
178	11890	1.09	0
178	11898	1.091	0
178	11910	1.092	0
178	11922	1.093	0
178	11930	1.094	0
178	11946	1.095	0
178	11954	1.096	0
178	11962	1.097	0
178	11974	1.098	0
178	11986	1.099	0
178	11996	1.1	0
178	12012	1.101	0
178	12020	1.102	0
178	12028	1.103	0
178	12040	1.104	0
178	12052	1.105	0
178	12060	1.106	0
178	12076	1.107	0
178	12084	1.108	0
178	12092	1.109	0
178	12104	1.11	0
178	12116	1.111	0
178	12124	1.112	0
178	12140	1.113	0
178	12148	1.114	0
178	12156	1.115	0
178	12168	1.116	0
178	12180	1.117	0
178	12188	1.118	0
178	12204	1.119	0
178	12212	1.12	0
178	12220	1.121	0
178	12232	1.122	0
178	12244	1.123	0
178	12252	1.124	0
178	12268	1.125	0
178	12276	1.126	0
178	12284	1.127	0
178	12296	1.128	0
178	12308	1.129	0
178	12316	1.13	0
178	12332	1.131	0
178	12340	1.132	0
178	12348	1.133	0
178	12360	1.134	0
178	12372	1.135	0
178	12380	1.136	0
178	12396	1.137	0
178	12404	1.138	0
178	12412	1.139	0
178	12424	1.14	0
178	12436	1.141	0
178	12444	1.142	0
178	12460	1.143	0
178	12468	1.144	0
178	12476	1.145	0
178	12488	1.146	0
178	12500	1.147	0
178	12508	1.148	0
178	12524	1.149	0
178	12532	1.15	0
178	12540	1.151	0
178	12552	1.152	0
178	12564	1.153	0
178	12572	1.154	0
178	12588	1.155	0
178	12596	1.156	0
178	12604	1.157	0
178	12616	1.158	0
178	12628	1.159	0
178	12636	1.16	0
178	12652	1.161	0
178	12660	1.162	0
178	12668	1.163	0
178	12680	1.164	0
178	12692	1.165	0
178	12700	1.166	0
178	12716	1.167	0
178	12724	1.168	0
178	12732	1.169	0
178	12744	1.17	0
178	12756	1.171	0
178	12764	1.172	0
178	12780	1.173	0
178	12788	1.174	0
178	12796	1.175	0
178	12808	1.176	0
178	12820	1.177	0
178	12828	1.178	0
178	12844	1.179	0
178	12852	1.18	0
178	12860	1.181	0
178	12872	1.182	0
178	12884	1.183	0
178	12892	1.184	0
178	12908	1.185	0
178	12916	1.186	0
178	12924	1.187	0
178	12936	1.188	0
178	12948	1.189	0
178	12956	1.19	0
178	12972	1.191	0
178	12980	1.192	0
178	12988	1.193	0
178	13000	1.194	0
178	13012	1.195	0
178	13020	1.196	0
178	13036	1.197	0
178	13044	1.198	0
178	13052	1.199	0
178	13066	1.2	0
178	13078	1.201	0
178	13086	1.202	0
178	13102	1.203	0
178	13110	1.204	0
178	13118	1.205	0
178	13130	1.206	0
178	13142	1.207	0
178	13150	1.208	0
178	13166	1.209	0
178	13174	1.21	0
178	13182	1.211	0
178	13194	1.212	0
178	13206	1.213	0
178	13214	1.214	0
178	13230	1.215	0
178	13238	1.216	0
178	13246	1.217	0
178	13258	1.218	0
178	13270	1.219	0
178	13278	1.22	0
178	13294	1.221	0
178	13302	1.222	0
178	13310	1.223	0
178	13322	1.224	0
178	13334	1.225	0
178	13342	1.226	0
178	13358	1.227	0
178	13366	1.228	0
178	13374	1.229	0
178	13386	1.23	0
178	13398	1.231	0
178	13406	1.232	0
178	13422	1.233	0
178	13430	1.234	0
178	13438	1.235	0
178	13450	1.236	0
178	13462	1.237	0
178	13470	1.238	0
178	13486	1.239	0
178	13494	1.24	0
178	13502	1.241	0
178	13514	1.242	0
178	13526	1.243	0
178	13534	1.244	0
178	13550	1.245	0
178	13558	1.246	0
178	13566	1.247	0
178	13578	1.248	0
178	13590	1.249	0
178	13598	1.25	0
178	13614	1.251	0
178	13622	1.252	0
178	13630	1.253	0
178	13642	1.254	0
178	13654	1.255	0
178	13662	1.256	0
178	13678	1.257	0
178	13686	1.258	0
178	13694	1.259	0
178	13706	1.26	0
178	13718	1.261	0
178	13726	1.262	0
178	13742	1.263	0
178	13750	1.264	0
178	13758	1.265	0
178	13770	1.266	0
178	13782	1.267	0
178	13790	1.268	0
178	13806	1.269	0
178	13814	1.27	0
178	13822	1.271	0
178	13834	1.272	0
178	13846	1.273	0
178	13854	1.274	0
178	13870	1.275	0
178	13878	1.276	0
178	13886	1.277	0
178	13898	1.278	0
178	13910	1.279	0
178	13918	1.28	0
178	13934	1.281	0
178	13942	1.282	0
178	13950	1.283	0
178	13962	1.284	0
178	13974	1.285	0
178	13982	1.286	0
178	13998	1.287	0
178	14006	1.288	0
178	14014	1.289	0
178	14026	1.29	0
178	14038	1.291	0
178	14046	1.292	0
178	14062	1.293	0
178	14070	1.294	0
178	14078	1.295	0
178	14090	1.296	0
178	14102	1.297	0
178	14110	1.298	0
178	14126	1.299	0
178	14136	1.3	0
178	14144	1.301	0
178	14156	1.302	0
178	14168	1.303	0
178	14176	1.304	0
178	14192	1.305	0
178	14200	1.306	0
178	14208	1.307	0
178	14220	1.308	0
178	14232	1.309	0
178	14240	1.31	0
178	14256	1.311	0
178	14264	1.312	0
178	14272	1.313	0
178	14284	1.314	0
178	14296	1.315	0
178	14304	1.316	0
178	14320	1.317	0
178	14328	1.318	0
178	14336	1.319	0
178	14348	1.32	0
178	14360	1.321	0
178	14368	1.322	0
178	14384	1.323	0
178	14392	1.324	0
178	14400	1.325	0
178	14412	1.326	0
178	14424	1.327	0
178	14432	1.328	0
178	14448	1.329	0
178	14456	1.33	0
178	14464	1.331	0
178	14476	1.332	0
178	14488	1.333	0
178	14496	1.334	0
178	14512	1.335	0
178	14520	1.336	0
178	14528	1.337	0
178	14540	1.338	0
178	14552	1.339	0
178	14560	1.34	0
178	14576	1.341	0
178	14584	1.342	0
178	14592	1.343	0
178	14604	1.344	0
178	14616	1.345	0
178	14624	1.346	0
178	14640	1.347	0
178	14648	1.348	0
178	14656	1.349	0
178	14668	1.35	0
178	14680	1.351	0
178	14688	1.352	0
178	14704	1.353	0
178	14712	1.354	0
178	14720	1.355	0
178	14732	1.356	0
178	14744	1.357	0
178	14752	1.358	0
178	14768	1.359	0
178	14776	1.36	0
178	14784	1.361	0
178	14796	1.362	0
178	14808	1.363	0
178	14816	1.364	0
178	14832	1.365	0
178	14840	1.366	0
178	14848	1.367	0
178	14860	1.368	0
178	14872	1.369	0
178	14880	1.37	0
178	14896	1.371	0
178	14904	1.372	0
178	14912	1.373	0
178	14924	1.374	0
178	14936	1.375	0
178	14944	1.376	0
178	14960	1.377	0
178	14968	1.378	0
178	14976	1.379	0
178	14988	1.38	0
178	15000	1.381	0
178	15008	1.382	0
178	15024	1.383	0
178	15032	1.384	0
178	15040	1.385	0
178	15052	1.386	0
178	15064	1.387	0
178	15072	1.388	0
178	15088	1.389	0
178	15096	1.39	0
178	15104	1.391	0
178	15116	1.392	0
178	15128	1.393	0
178	15136	1.394	0
178	15152	1.395	0
178	15160	1.396	0
178	15168	1.397	0
178	15180	1.398	0
178	15192	1.399	0
178	15202	1.4	0
178	15218	1.401	0
178	15226	1.402	0
178	15234	1.403	0
178	15246	1.404	0
178	15258	1.405	0
178	15266	1.406	0
178	15282	1.407	0
178	15290	1.408	0
178	15298	1.409	0
178	15310	1.41	0
178	15322	1.411	0
178	15330	1.412	0
178	15346	1.413	0
178	15354	1.414	0
178	15362	1.415	0
178	15374	1.416	0
178	15386	1.417	0
178	15394	1.418	0
178	15410	1.419	0
178	15418	1.42	0
178	15426	1.421	0
178	15438	1.422	0
178	15450	1.423	0
178	15458	1.424	0
178	15474	1.425	0
178	15482	1.426	0
178	15490	1.427	0
178	15502	1.428	0
178	15514	1.429	0
178	15522	1.43	0
178	15538	1.431	0
178	15546	1.432	0
178	15554	1.433	0
178	15566	1.434	0
178	15578	1.435	0
178	15586	1.436	0
178	15602	1.437	0
178	15610	1.438	0
178	15618	1.439	0
178	15630	1.44	0
178	15642	1.441	0
178	15650	1.442	0
178	15666	1.443	0
178	15674	1.444	0
178	15682	1.445	0
178	15694	1.446	0
178	15706	1.447	0
178	15714	1.448	0
178	15730	1.449	0
178	15738	1.45	0
178	15746	1.451	0
178	15758	1.452	0
178	15770	1.453	0
178	15778	1.454	0
178	15794	1.455	0
178	15802	1.456	0
178	15810	1.457	0
178	15822	1.458	0
178	15834	1.459	0
178	15842	1.46	0
178	15858	1.461	0
178	15866	1.462	0
178	15874	1.463	0
178	15886	1.464	0
178	15898	1.465	0
178	15906	1.466	0
178	15922	1.467	0
178	15930	1.468	0
178	15938	1.469	0
178	15950	1.47	0
178	15962	1.471	0
178	15970	1.472	0
178	15986	1.473	0
178	15994	1.474	0
178	16002	1.475	0
178	16014	1.476	0
178	16026	1.477	0
178	16034	1.478	0
178	16050	1.479	0
178	16058	1.48	0
178	16066	1.481	0
178	16078	1.482	0
178	16090	1.483	0
178	16098	1.484	0
178	16114	1.485	0
178	16122	1.486	0
178	16130	1.487	0
178	16142	1.488	0
178	16154	1.489	0
178	16162	1.49	0
178	16178	1.491	0
178	16186	1.492	0
178	16194	1.493	0
178	16206	1.494	0
178	16218	1.495	0
178	16226	1.496	0
178	16242	1.497	0
178	16250	1.498	0
178	16258	1.499	0
178	16272	1.5	0
178	16284	1.501	0
178	16292	1.502	0
178	16308	1.503	0
178	16316	1.504	0
178	16324	1.505	0
178	16336	1.506	0
178	16348	1.507	0
178	16356	1.508	0
178	16372	1.509	0
178	16380	1.51	0
178	16388	1.511	0
178	16400	1.512	0
178	16412	1.513	0
178	16420	1.514	0
178	16436	1.515	0
178	16444	1.516	0
178	16452	1.517	0
178	16464	1.518	0
178	16476	1.519	0
178	16484	1.52	0
178	16500	1.521	0
178	16508	1.522	0
178	16516	1.523	0
178	16528	1.524	0
178	16540	1.525	0
178	16548	1.526	0
178	16564	1.527	0
178	16572	1.528	0
178	16580	1.529	0
178	16592	1.53	0
178	16604	1.531	0
178	16612	1.532	0
178	16628	1.533	0
178	16636	1.534	0
178	16644	1.535	0
178	16656	1.536	0
178	16668	1.537	0
178	16676	1.538	0
178	16692	1.539	0
178	16700	1.54	0
178	16708	1.541	0
178	16720	1.542	0
178	16732	1.543	0
178	16740	1.544	0
178	16756	1.545	0
178	16764	1.546	0
178	16772	1.547	0
178	16784	1.548	0
178	16796	1.549	0
178	16804	1.55	0
178	16820	1.551	0
178	16828	1.552	0
178	16836	1.553	0
178	16848	1.554	0
178	16860	1.555	0
178	16868	1.556	0
178	16884	1.557	0
178	16892	1.558	0
178	16900	1.559	0
178	16912	1.56	0
178	16924	1.561	0
178	16932	1.562	0
178	16948	1.563	0
178	16956	1.564	0
178	16964	1.565	0
178	16976	1.566	0
178	16988	1.567	0
178	16996	1.568	0
178	17012	1.569	0
178	17020	1.57	0
178	17028	1.571	0
178	17040	1.572	0
178	17052	1.573	0
178	17060	1.574	0
178	17076	1.575	0
178	17084	1.576	0
178	17092	1.577	0
178	17104	1.578	0
178	17116	1.579	0
178	17124	1.58	0
178	17140	1.581	0
178	17148	1.582	0
178	17156	1.583	0
178	17168	1.584	0
178	17180	1.585	0
178	17188	1.586	0
178	17204	1.587	0
178	17212	1.588	0
178	17220	1.589	0
178	17232	1.59	0
178	17244	1.591	0
178	17252	1.592	0
178	17268	1.593	0
178	17276	1.594	0
178	17284	1.595	0
178	17296	1.596	0
178	17308	1.597	0
178	17316	1.598	0
178	17332	1.599	0
178	17342	1.6	0
178	17350	1.601	0
178	17362	1.602	0
178	17374	1.603	0
178	17382	1.604	0
178	17398	1.605	0
178	17406	1.606	0
178	17414	1.607	0
178	17426	1.608	0
178	17438	1.609	0
178	17446	1.61	0
178	17462	1.611	0
178	17470	1.612	0
178	17478	1.613	0
178	17490	1.614	0
178	17502	1.615	0
178	17510	1.616	0
178	17526	1.617	0
178	17534	1.618	0
178	17542	1.619	0
178	17554	1.62	0
178	17566	1.621	0
178	17574	1.622	0
178	17590	1.623	0
178	17598	1.624	0
178	17606	1.625	0
178	17618	1.626	0
178	17630	1.627	0
178	17638	1.628	0
178	17654	1.629	0
178	17662	1.63	0
178	17670	1.631	0
178	17682	1.632	0
178	17694	1.633	0
178	17702	1.634	0
178	17718	1.635	0
178	17726	1.636	0
178	17734	1.637	0
178	17746	1.638	0
178	17758	1.639	0
178	17766	1.64	0
178	17782	1.641	0
178	17790	1.642	0
178	17798	1.643	0
178	17810	1.644	0
178	17822	1.645	0
178	17830	1.646	0
178	17846	1.647	0
178	17854	1.648	0
178	17862	1.649	0
178	17874	1.65	0
178	17886	1.651	0
178	17894	1.652	0
178	17910	1.653	0
178	17918	1.654	0
178	17926	1.655	0
178	17938	1.656	0
178	17950	1.657	0
178	17958	1.658	0
178	17974	1.659	0
178	17982	1.66	0
178	17990	1.661	0
178	18002	1.662	0
178	18014	1.663	0
178	18022	1.664	0
178	18038	1.665	0
178	18046	1.666	0
[...]
290	214308	4.7	0
290	214308	4.8	0
290	214308	4.9	0
290	214308	5	0
290	214308	5.1	0
290	214308	5.2	0
290	214308	5.3	0
290	214308	5.4	0
290	214308	5.5	0
290	214308	5.6	0
290	214308	5.7	0
290	214308	5.8	0
290	214308	5.9	0
290	214308	6	0
290	214308	6.1	0
290	214308	6.2	0
290	214308	6.3	0
290	214308	6.4	0
290	214308	6.5	0
290	214308	6.6	0
290	214308	6.7	0
290	214308	6.8	0
290	214308	6.9	0
290	214308	7	0
290	214308	7.1	0
290	214308	7.2	0
290	214308	7.3	0
290	214308	7.4	0
290	214308	7.5	0
290	214308	7.6	0
290	214308	7.7	0
290	214308	7.8	0
290	214308	7.9	0
290	214308	8	0
290	214308	8.1	0
290	214308	8.2	0
290	214308	8.3	0
290	214308	8.4	0
290	214308	8.5	0
290	214308	8.6	0
290	214308	8.7	0
290	214308	8.8	0
290	214308	8.9	0
290	214308	9	0
290	214308	9.1	0
290	214308	9.2	0
290	214308	9.3	0
290	214308	9.4	0
290	214308	9.5	0
290	214308	9.6	0
290	214308	9.7	0
290	214308	9.8	0
290	214308	9.9	0
290	214308	10	0
290	214308	10.1	0
290	214308	10.2	0
290	214308	10.3	0
290	214308	10.4	0
290	214308	10.5	0
290	214308	10.6	0
290	214308	10.7	0
290	214308	10.8	0
290	214308	10.9	0
290	214308	11	0
290	214308	11.1	0
290	214308	11.2	0
290	214308	11.3	0
290	214308	11.4	0
290	214308	11.5	0
290	214308	11.6	0
290	214308	11.7	0
290	214308	11.8	0
290	214308	11.9	0
290	214308	12	0
290	214308	12.1	0
290	214308	12.2	0
290	214308	12.3	0
290	214308	12.4	0
290	214308	12.5	0
290	214308	12.6	0
290	214308	12.7	0
290	214308	12.8	0
290	214308	12.9	0
290	214308	13	0
290	214308	13.1	0
290	214308	13.2	0
290	214308	13.3	0
290	214308	13.4	0
290	214308	13.5	0
290	214308	13.6	0
290	214308	13.7	0
290	214308	13.8	0
290	214308	13.9	0
290	214308	14	0
290	214308	14.1	0
290	214308	14.2	0
290	214308	14.3	0
290	214308	14.4	0
290	214308	14.5	0
290	214308	14.6	0
290	214308	14.7	0
290	214308	14.8	0
290	214308	14.9	0
290	214308	15	0
290	214308	15.1	0
290	214308	15.2	0
290	214308	15.3	0
290	214308	15.4	0
290	214308	15.5	0
290	214308	15.6	0
290	214308	15.7	0
290	214308	15.8	0
290	214308	15.9	0
290	214308	16	0
290	214308	16.1	0
290	214308	16.2	0
290	214308	16.3	0
290	214308	16.4	0
290	214308	16.5	0
290	214308	16.6	0
290	214308	16.7	0
290	214308	16.8	0
290	214308	16.9	0
290	214308	17	0
290	214308	17.1	0
290	214308	17.2	0
290	214308	17.3	0
290	214308	17.4	0
290	214308	17.5	0
290	214308	17.6	0
290	214308	17.7	0
290	214308	17.8	0
290	214308	17.9	0
290	214308	18	0
290	214308	18.1	0
290	214308	18.2	0
290	214308	18.3	0
290	214308	18.4	0
290	214308	18.5	0
290	214308	18.6	0
290	214308	18.7	0
290	214308	18.8	0
290	214308	18.9	0
290	214308	19	0
290	214308	19.1	0
290	214308	19.2	0
290	214308	19.3	0
290	214308	19.4	0
290	214308	19.5	0
290	214308	19.6	0
290	214308	19.7	0
290	214308	19.8	0
290	214308	19.9	0
290	214308	20	0
291	214308	0.1	0
291	214308	0.2	0
291	214308	0.3	0
291	214308	0.4	0
291	214308	0.5	0
291	214308	0.6	0
291	214308	0.7	0
291	214308	0.8	0
291	214308	0.9	0
291	214308	1	0
291	214308	1.1	0
291	214308	1.2	0
291	214308	1.3	0
291	214308	1.4	0
291	214308	1.5	0
291	214308	1.6	0
291	214308	1.7	0
291	214308	1.8	0
291	214308	1.9	0
291	214308	2	0
291	214308	2.1	0
291	214308	2.2	0
291	214308	2.3	0
291	214308	2.4	0
291	214308	2.5	0
291	214308	2.6	0
291	214308	2.7	0
291	214308	2.8	0
291	214308	2.9	0
291	214308	3	0
291	214308	3.1	0
291	214308	3.2	0
291	214308	3.3	0
291	214308	3.4	0
291	214308	3.5	0
291	214308	3.6	0
291	214308	3.7	0
291	214308	3.8	0
291	214308	3.9	0
291	214308	4	0
291	214308	4.1	0
291	214308	4.2	0
291	214308	4.3	0
291	214308	4.4	0
291	214308	4.5	0
291	214308	4.6	0
291	214308	4.7	0
291	214308	4.8	0
291	214308	4.9	0
291	214308	5	0
291	214308	5.1	0
291	214308	5.2	0
291	214308	5.3	0
291	214308	5.4	0
291	214308	5.5	0
291	214308	5.6	0
291	214308	5.7	0
291	214308	5.8	0
291	214308	5.9	0
291	214308	6	0
291	214308	6.1	0
291	214308	6.2	0
291	214308	6.3	0
291	214308	6.4	0
291	214308	6.5	0
291	214308	6.6	0
291	214308	6.7	0
291	214308	6.8	0
291	214308	6.9	0
291	214308	7	0
291	214308	7.1	0
291	214308	7.2	0
291	214308	7.3	0
291	214308	7.4	0
291	214308	7.5	0
291	214308	7.6	0
291	214308	7.7	0
291	214308	7.8	0
291	214308	7.9	0
291	214308	8	0
291	214308	8.1	0
291	214308	8.2	0
291	214308	8.3	0
291	214308	8.4	0
291	214308	8.5	0
291	214308	8.6	0
291	214308	8.7	0
291	214308	8.8	0
291	214308	8.9	0
291	214308	9	0
291	214308	9.1	0
291	214308	9.2	0
291	214308	9.3	0
291	214308	9.4	0
291	214308	9.5	0
291	214308	9.6	0
291	214308	9.7	0
291	214308	9.8	0
291	214308	9.9	0
291	214308	10	0
291	214308	10.1	0
291	214308	10.2	0
291	214308	10.3	0
291	214308	10.4	0
291	214308	10.5	0
291	214308	10.6	0
291	214308	10.7	0
291	214308	10.8	0
291	214308	10.9	0
291	214308	11	0
291	214308	11.1	0
291	214308	11.2	0
291	214308	11.3	0
291	214308	11.4	0
291	214308	11.5	0
291	214308	11.6	0
291	214308	11.7	0
291	214308	11.8	0
291	214308	11.9	0
291	214308	12	0
291	214308	12.1	0
291	214308	12.2	0
291	214308	12.3	0
291	214308	12.4	0
291	214308	12.5	0
291	214308	12.6	0
291	214308	12.7	0
291	214308	12.8	0
291	214308	12.9	0
291	214308	13	0
291	214308	13.1	0
291	214308	13.2	0
291	214308	13.3	0
291	214308	13.4	0
291	214308	13.5	0
291	214308	13.6	0
291	214308	13.7	0
291	214308	13.8	0
291	214308	13.9	0
291	214308	14	0
291	214308	14.1	0
291	214308	14.2	0
291	214308	14.3	0
291	214308	14.4	0
291	214308	14.5	0
291	214308	14.6	0
291	214308	14.7	0
291	214308	14.8	0
291	214308	14.9	0
291	214308	15	0
291	214308	15.1	0
291	214308	15.2	0
291	214308	15.3	0
291	214308	15.4	0
291	214308	15.5	0
291	214308	15.6	0
291	214308	15.7	0
291	214308	15.8	0
291	214308	15.9	0
291	214308	16	0
291	214308	16.1	0
291	214308	16.2	0
291	214308	16.3	0
291	214308	16.4	0
291	214308	16.5	0
291	214308	16.6	0
291	214308	16.7	0
291	214308	16.8	0
291	214308	16.9	0
291	214308	17	0
291	214308	17.1	0
291	214308	17.2	0
291	214308	17.3	0
291	214308	17.4	0
291	214308	17.5	0
291	214308	17.6	0
291	214308	17.7	0
291	214308	17.8	0
291	214308	17.9	0
291	214308	18	0
291	214308	18.1	0
291	214308	18.2	0
291	214308	18.3	0
291	214308	18.4	0
291	214308	18.5	0
291	214308	18.6	0
291	214308	18.7	0
291	214308	18.8	0
291	214308	18.9	0
291	214308	19	0
291	214308	19.1	0
291	214308	19.2	0
291	214308	19.3	0
291	214308	19.4	0
291	214308	19.5	0
291	214308	19.6	0
291	214308	19.7	0
291	214308	19.8	0
291	214308	19.9	0
291	214308	20	0
292	214308	0.1	0
292	214308	0.2	0
292	214308	0.3	0
292	214308	0.4	0
292	214308	0.5	0
292	214308	0.6	0
292	214308	0.7	0
292	214308	0.8	0
292	214308	0.9	0
292	214308	1	0
292	214308	1.1	0
292	214308	1.2	0
292	214308	1.3	0
292	214308	1.4	0
292	214308	1.5	0
292	214308	1.6	0
292	214308	1.7	0
292	214308	1.8	0
292	214308	1.9	0
292	214308	2	0
292	214308	2.1	0
292	214308	2.2	0
292	214308	2.3	0
292	214308	2.4	0
292	214308	2.5	0
292	214308	2.6	0
292	214308	2.7	0
292	214308	2.8	0
292	214308	2.9	0
292	214308	3	0
292	214308	3.1	0
292	214308	3.2	0
292	214308	3.3	0
292	214308	3.4	0
292	214308	3.5	0
292	214308	3.6	0
292	214308	3.7	0
292	214308	3.8	0
292	214308	3.9	0
292	214308	4	0
292	214308	4.1	0
292	214308	4.2	0
292	214308	4.3	0
292	214308	4.4	0
292	214308	4.5	0
292	214308	4.6	0
292	214308	4.7	0
292	214308	4.8	0
292	214308	4.9	0
292	214308	5	0
292	214308	5.1	0
292	214308	5.2	0
292	214308	5.3	0
292	214308	5.4	0
292	214308	5.5	0
292	214308	5.6	0
292	214308	5.7	0
292	214308	5.8	0
292	214308	5.9	0
292	214308	6	0
292	214308	6.1	0
292	214308	6.2	0
292	214308	6.3	0
292	214308	6.4	0
292	214308	6.5	0
292	214308	6.6	0
292	214308	6.7	0
292	214308	6.8	0
292	214308	6.9	0
292	214308	7	0
292	214308	7.1	0
292	214308	7.2	0
292	214308	7.3	0
292	214308	7.4	0
292	214308	7.5	0
292	214308	7.6	0
292	214308	7.7	0
292	214308	7.8	0
292	214308	7.9	0
292	214308	8	0
292	214308	8.1	0
292	214308	8.2	0
292	214308	8.3	0
292	214308	8.4	0
292	214308	8.5	0
292	214308	8.6	0
292	214308	8.7	0
292	214308	8.8	0
292	214308	8.9	0
292	214308	9	0
292	214308	9.1	0
292	214308	9.2	0
292	214308	9.3	0
292	214308	9.4	0
292	214308	9.5	0
292	214308	9.6	0
292	214308	9.7	0
292	214308	9.8	0
292	214308	9.9	0
292	214308	10	0
292	214308	10.1	0
292	214308	10.2	0
292	214308	10.3	0
292	214308	10.4	0
292	214308	10.5	0
292	214308	10.6	0
292	214308	10.7	0
292	214308	10.8	0
292	214308	10.9	0
292	214308	11	0
292	214308	11.1	0
292	214308	11.2	0
292	214308	11.3	0
292	214308	11.4	0
292	214308	11.5	0
292	214308	11.6	0
292	214308	11.7	0
292	214308	11.8	0
292	214308	11.9	0
292	214308	12	0
292	214308	12.1	0
292	214308	12.2	0
292	214308	12.3	0
292	214308	12.4	0
292	214308	12.5	0
292	214308	12.6	0
292	214308	12.7	0
292	214308	12.8	0
292	214308	12.9	0
292	214308	13	0
292	214308	13.1	0
292	214308	13.2	0
292	214308	13.3	0
292	214308	13.4	0
292	214308	13.5	0
292	214308	13.6	0
292	214308	13.7	0
292	214308	13.8	0
292	214308	13.9	0
292	214308	14	0
292	214308	14.1	0
292	214308	14.2	0
292	214308	14.3	0
292	214308	14.4	0
292	214308	14.5	0
292	214308	14.6	0
292	214308	14.7	0
292	214308	14.8	0
292	214308	14.9	0
292	214308	15	0
292	214308	15.1	0
292	214308	15.2	0
292	214308	15.3	0
292	214308	15.4	0
292	214308	15.5	0
292	214308	15.6	0
292	214308	15.7	0
292	214308	15.8	0
292	214308	15.9	0
292	214308	16	0
292	214308	16.1	0
292	214308	16.2	0
292	214308	16.3	0
292	214308	16.4	0
292	214308	16.5	0
292	214308	16.6	0
292	214308	16.7	0
292	214308	16.8	0
292	214308	16.9	0
292	214308	17	0
292	214308	17.1	0
292	214308	17.2	0
292	214308	17.3	0
292	214308	17.4	0
292	214308	17.5	0
292	214308	17.6	0
292	214308	17.7	0
292	214308	17.8	0
292	214308	17.9	0
292	214308	18	0
292	214308	18.1	0
292	214308	18.2	0
292	214308	18.3	0
292	214308	18.4	0
292	214308	18.5	0
292	214308	18.6	0
292	214308	18.7	0
292	214308	18.8	0
292	214308	18.9	0
292	214308	19	0
292	214308	19.1	0
292	214308	19.2	0
292	214308	19.3	0
292	214308	19.4	0
292	214308	19.5	0
292	214308	19.6	0
292	214308	19.7	0
292	214308	19.8	0
292	214308	19.9	0
292	214308	20	0
293	214308	0.1	0
293	214308	0.2	0
293	214308	0.3	0
293	214308	0.4	0
293	214308	0.5	0
293	214308	0.6	0
293	214308	0.7	0
293	214308	0.8	0
293	214308	0.9	0
293	214308	1	0
293	214308	1.1	0
293	214308	1.2	0
293	214308	1.3	0
293	214308	1.4	0
293	214308	1.5	0
293	214308	1.6	0
293	214308	1.7	0
293	214308	1.8	0
293	214308	1.9	0
293	214308	2	0
293	214308	2.1	0
293	214308	2.2	0
293	214308	2.3	0
293	214308	2.4	0
293	214308	2.5	0
293	214308	2.6	0
293	214308	2.7	0
293	214308	2.8	0
293	214308	2.9	0
293	214308	3	0
293	214308	3.1	0
293	214308	3.2	0
293	214308	3.3	0
293	214308	3.4	0
293	214308	3.5	0
293	214308	3.6	0
293	214308	3.7	0
293	214308	3.8	0
293	214308	3.9	0
293	214308	4	0
293	214308	4.1	0
293	214308	4.2	0
293	214308	4.3	0
293	214308	4.4	0
293	214308	4.5	0
293	214308	4.6	0
293	214308	4.7	0
293	214308	4.8	0
293	214308	4.9	0
293	214308	5	0
293	214308	5.1	0
293	214308	5.2	0
293	214308	5.3	0
293	214308	5.4	0
293	214308	5.5	0
293	214308	5.6	0
293	214308	5.7	0
293	214308	5.8	0
293	214308	5.9	0
293	214308	6	0
293	214308	6.1	0
293	214308	6.2	0
293	214308	6.3	0
293	214308	6.4	0
293	214308	6.5	0
293	214308	6.6	0
293	214308	6.7	0
293	214308	6.8	0
293	214308	6.9	0
293	214308	7	0
293	214308	7.1	0
293	214308	7.2	0
293	214308	7.3	0
293	214308	7.4	0
293	214308	7.5	0
293	214308	7.6	0
293	214308	7.7	0
293	214308	7.8	0
293	214308	7.9	0
293	214308	8	0
293	214308	8.1	0
293	214308	8.2	0
293	214308	8.3	0
293	214308	8.4	0
293	214308	8.5	0
293	214308	8.6	0
293	214308	8.7	0
293	214308	8.8	0
293	214308	8.9	0
293	214308	9	0
293	214308	9.1	0
293	214308	9.2	0
293	214308	9.3	0
293	214308	9.4	0
293	214308	9.5	0
293	214308	9.6	0
293	214308	9.7	0
293	214308	9.8	0
293	214308	9.9	0
293	214308	10	0
293	214308	10.1	0
293	214308	10.2	0
293	214308	10.3	0
293	214308	10.4	0
293	214308	10.5	0
293	214308	10.6	0
293	214308	10.7	0
293	214308	10.8	0
293	214308	10.9	0
293	214308	11	0
293	214308	11.1	0
293	214308	11.2	0
293	214308	11.3	0
293	214308	11.4	0
293	214308	11.5	0
293	214308	11.6	0
293	214308	11.7	0
293	214308	11.8	0
293	214308	11.9	0
293	214308	12	0
293	214308	12.1	0
293	214308	12.2	0
293	214308	12.3	0
293	214308	12.4	0
293	214308	12.5	0
293	214308	12.6	0
293	214308	12.7	0
293	214308	12.8	0
293	214308	12.9	0
293	214308	13	0
293	214308	13.1	0
293	214308	13.2	0
293	214308	13.3	0
293	214308	13.4	0
293	214308	13.5	0
293	214308	13.6	0
293	214308	13.7	0
293	214308	13.8	0
293	214308	13.9	0
293	214308	14	0
293	214308	14.1	0
293	214308	14.2	0
293	214308	14.3	0
293	214308	14.4	0
293	214308	14.5	0
293	214308	14.6	0
293	214308	14.7	0
293	214308	14.8	0
293	214308	14.9	0
293	214308	15	0
293	214308	15.1	0
293	214308	15.2	0
293	214308	15.3	0
293	214308	15.4	0
293	214308	15.5	0
293	214308	15.6	0
293	214308	15.7	0
293	214308	15.8	0
293	214308	15.9	0
293	214308	16	0
293	214308	16.1	0
293	214308	16.2	0
293	214308	16.3	0
293	214308	16.4	0
293	214308	16.5	0
293	214308	16.6	0
293	214308	16.7	0
293	214308	16.8	0
293	214308	16.9	0
293	214308	17	0
293	214308	17.1	0
293	214308	17.2	0
293	214308	17.3	0
293	214308	17.4	0
293	214308	17.5	0
293	214308	17.6	0
293	214308	17.7	0
293	214308	17.8	0
293	214308	17.9	0
293	214308	18	0
293	214308	18.1	0
293	214308	18.2	0
293	214308	18.3	0
293	214308	18.4	0
293	214308	18.5	0
293	214308	18.6	0
293	214308	18.7	0
293	214308	18.8	0
293	214308	18.9	0
293	214308	19	0
293	214308	19.1	0
293	214308	19.2	0
293	214308	19.3	0
293	214308	19.4	0
293	214308	19.5	0
293	214308	19.6	0
293	214308	19.7	0
293	214308	19.8	0
293	214308	19.9	0
293	214308	20	0
294	214308	0.1	0
294	214308	0.2	0
294	214308	0.3	0
294	214308	0.4	0
294	214308	0.5	0
294	214308	0.6	0
294	214308	0.7	0
294	214308	0.8	0
294	214308	0.9	0
294	214308	1	0
294	214308	1.1	0
294	214308	1.2	0
294	214308	1.3	0
294	214308	1.4	0
294	214308	1.5	0
294	214308	1.6	0
294	214308	1.7	0
294	214308	1.8	0
294	214308	1.9	0
294	214308	2	0
294	214308	2.1	0
294	214308	2.2	0
294	214308	2.3	0
294	214308	2.4	0
294	214308	2.5	0
294	214308	2.6	0
294	214308	2.7	0
294	214308	2.8	0
294	214308	2.9	0
294	214308	3	0
294	214308	3.1	0
294	214308	3.2	0
294	214308	3.3	0
294	214308	3.4	0
294	214308	3.5	0
294	214308	3.6	0
294	214308	3.7	0
294	214308	3.8	0
294	214308	3.9	0
294	214308	4	0
294	214308	4.1	0
294	214308	4.2	0
294	214308	4.3	0
294	214308	4.4	0
294	214308	4.5	0
294	214308	4.6	0
294	214308	4.7	0
294	214308	4.8	0
294	214308	4.9	0
294	214308	5	0
294	214308	5.1	0
294	214308	5.2	0
294	214308	5.3	0
294	214308	5.4	0
294	214308	5.5	0
294	214308	5.6	0
294	214308	5.7	0
294	214308	5.8	0
294	214308	5.9	0
294	214308	6	0
294	214308	6.1	0
294	214308	6.2	0
294	214308	6.3	0
294	214308	6.4	0
294	214308	6.5	0
294	214308	6.6	0
294	214308	6.7	0
294	214308	6.8	0
294	214308	6.9	0
294	214308	7	0
294	214308	7.1	0
294	214308	7.2	0
294	214308	7.3	0
294	214308	7.4	0
294	214308	7.5	0
294	214308	7.6	0
294	214308	7.7	0
294	214308	7.8	0
294	214308	7.9	0
294	214308	8	0
294	214308	8.1	0
294	214308	8.2	0
294	214308	8.3	0
294	214308	8.4	0
294	214308	8.5	0
294	214308	8.6	0
294	214308	8.7	0
294	214308	8.8	0
294	214308	8.9	0
294	214308	9	0
294	214308	9.1	0
294	214308	9.2	0
294	214308	9.3	0
294	214308	9.4	0
294	214308	9.5	0
294	214308	9.6	0
294	214308	9.7	0
294	214308	9.8	0
294	214308	9.9	0
294	214308	10	0
294	214308	10.1	0
294	214308	10.2	0
294	214308	10.3	0
294	214308	10.4	0
294	214308	10.5	0
294	214308	10.6	0
294	214308	10.7	0
294	214308	10.8	0
294	214308	10.9	0
294	214308	11	0
294	214308	11.1	0
294	214308	11.2	0
294	214308	11.3	0
294	214308	11.4	0
294	214308	11.5	0
294	214308	11.6	0
294	214308	11.7	0
294	214308	11.8	0
294	214308	11.9	0
294	214308	12	0
294	214308	12.1	0
294	214308	12.2	0
294	214308	12.3	0
294	214308	12.4	0
294	214308	12.5	0
294	214308	12.6	0
294	214308	12.7	0
294	214308	12.8	0
294	214308	12.9	0
294	214308	13	0
294	214308	13.1	0
294	214308	13.2	0
294	214308	13.3	0
294	214308	13.4	0
294	214308	13.5	0
294	214308	13.6	0
294	214308	13.7	0
294	214308	13.8	0
294	214308	13.9	0
294	214308	14	0
294	214308	14.1	0
294	214308	14.2	0
294	214308	14.3	0
294	214308	14.4	0
294	214308	14.5	0
294	214308	14.6	0
294	214308	14.7	0
294	214308	14.8	0
294	214308	14.9	0
294	214308	15	0
294	214308	15.1	0
294	214308	15.2	0
294	214308	15.3	0
294	214308	15.4	0
294	214308	15.5	0
294	214308	15.6	0
294	214308	15.7	0
294	214308	15.8	0
294	214308	15.9	0
294	214308	16	0
294	214308	16.1	0
294	214308	16.2	0
294	214308	16.3	0
294	214308	16.4	0
294	214308	16.5	0
294	214308	16.6	0
294	214308	16.7	0
294	214308	16.8	0
294	214308	16.9	0
294	214308	17	0
294	214308	17.1	0
294	214308	17.2	0
294	214308	17.3	0
294	214308	17.4	0
294	214308	17.5	0
294	214308	17.6	0
294	214308	17.7	0
294	214308	17.8	0
294	214308	17.9	0
294	214308	18	0
294	214308	18.1	0
294	214308	18.2	0
294	214308	18.3	0
294	214308	18.4	0
294	214308	18.5	0
294	214308	18.6	0
294	214308	18.7	0
294	214308	18.8	0
294	214308	18.9	0
294	214308	19	0
294	214308	19.1	0
294	214308	19.2	0
294	214308	19.3	0
294	214308	19.4	0
294	214308	19.5	0
294	214308	19.6	0
294	214308	19.7	0
294	214308	19.8	0
294	214308	19.9	0
294	214308	20	0
295	214308	0.1	0
295	214308	0.2	0
295	214308	0.3	0
295	214308	0.4	0
295	214308	0.5	0
295	214308	0.6	0
295	214308	0.7	0
295	214308	0.8	0
295	214308	0.9	0
295	214308	1	0
295	214308	1.1	0
295	214308	1.2	0
295	214308	1.3	0
295	214308	1.4	0
295	214308	1.5	0
295	214308	1.6	0
295	214308	1.7	0
295	214308	1.8	0
295	214308	1.9	0
295	214308	2	0
295	214308	2.1	0
295	214308	2.2	0
295	214308	2.3	0
295	214308	2.4	0
295	214308	2.5	0
295	214308	2.6	0
295	214308	2.7	0
295	214308	2.8	0
295	214308	2.9	0
295	214308	3	0
295	214308	3.1	0
295	214308	3.2	0
295	214308	3.3	0
295	214308	3.4	0
295	214308	3.5	0
295	214308	3.6	0
295	214308	3.7	0
295	214308	3.8	0
295	214308	3.9	0
295	214308	4	0
295	214308	4.1	0
295	214308	4.2	0
295	214308	4.3	0
295	214308	4.4	0
295	214308	4.5	0
295	214308	4.6	0
295	214308	4.7	0
295	214308	4.8	0
295	214308	4.9	0
295	214308	5	0
295	214308	5.1	0
295	214308	5.2	0
295	214308	5.3	0
295	214308	5.4	0
295	214308	5.5	0
295	214308	5.6	0
295	214308	5.7	0
295	214308	5.8	0
295	214308	5.9	0
295	214308	6	0
295	214308	6.1	0
295	214308	6.2	0
295	214308	6.3	0
295	214308	6.4	0
295	214308	6.5	0
295	214308	6.6	0
295	214308	6.7	0
295	214308	6.8	0
295	214308	6.9	0
295	214308	7	0
295	214308	7.1	0
295	214308	7.2	0
295	214308	7.3	0
295	214308	7.4	0
295	214308	7.5	0
295	214308	7.6	0
295	214308	7.7	0
295	214308	7.8	0
295	214308	7.9	0
295	214308	8	0
295	214308	8.1	0
295	214308	8.2	0
295	214308	8.3	0
295	214308	8.4	0
295	214308	8.5	0
295	214308	8.6	0
295	214308	8.7	0
295	214308	8.8	0
295	214308	8.9	0
295	214308	9	0
295	214308	9.1	0
295	214308	9.2	0
295	214308	9.3	0
295	214308	9.4	0
295	214308	9.5	0
295	214308	9.6	0
295	214308	9.7	0
295	214308	9.8	0
295	214308	9.9	0
295	214308	10	0
295	214308	10.1	0
295	214308	10.2	0
295	214308	10.3	0
295	214308	10.4	0
295	214308	10.5	0
295	214308	10.6	0
295	214308	10.7	0
295	214308	10.8	0
295	214308	10.9	0
295	214308	11	0
295	214308	11.1	0
295	214308	11.2	0
295	214308	11.3	0
295	214308	11.4	0
295	214308	11.5	0
295	214308	11.6	0
295	214308	11.7	0
295	214308	11.8	0
295	214308	11.9	0
295	214308	12	0
295	214308	12.1	0
295	214308	12.2	0
295	214308	12.3	0
295	214308	12.4	0
295	214308	12.5	0
295	214308	12.6	0
295	214308	12.7	0
295	214308	12.8	0
295	214308	12.9	0
295	214308	13	0
295	214308	13.1	0
295	214308	13.2	0
295	214308	13.3	0
295	214308	13.4	0
295	214308	13.5	0
295	214308	13.6	0
295	214308	13.7	0
295	214308	13.8	0
295	214308	13.9	0
295	214308	14	0
295	214308	14.1	0
295	214308	14.2	0
295	214308	14.3	0
295	214308	14.4	0
295	214308	14.5	0
295	214308	14.6	0
295	214308	14.7	0
295	214308	14.8	0
295	214308	14.9	0
295	214308	15	0
295	214308	15.1	0
295	214308	15.2	0
295	214308	15.3	0
295	214308	15.4	0
295	214308	15.5	0
295	214308	15.6	0
295	214308	15.7	0
295	214308	15.8	0
295	214308	15.9	0
295	214308	16	0
295	214308	16.1	0
295	214308	16.2	0
295	214308	16.3	0
295	214308	16.4	0
295	214308	16.5	0
295	214308	16.6	0
295	214308	16.7	0
295	214308	16.8	0
295	214308	16.9	0
295	214308	17	0
295	214308	17.1	0
295	214308	17.2	0
295	214308	17.3	0
295	214308	17.4	0
295	214308	17.5	0
295	214308	17.6	0
295	214308	17.7	0
295	214308	17.8	0
295	214308	17.9	0
295	214308	18	0
295	214308	18.1	0
295	214308	18.2	0
295	214308	18.3	0
295	214308	18.4	0
295	214308	18.5	0
295	214308	18.6	0
295	214308	18.7	0
295	214308	18.8	0
295	214308	18.9	0
295	214308	19	0
295	214308	19.1	0
295	214308	19.2	0
295	214308	19.3	0
295	214308	19.4	0
295	214308	19.5	0
295	214308	19.6	0
295	214308	19.7	0
295	214308	19.8	0
295	214308	19.9	0
295	214308	20	0

